
     RDKit          3D

121127  0  0  1  0  0  0  0  0999 V2000
   -8.1937   14.1536   -0.5794 O   0  0  0  0  0  0  0  0  0  0  0  0
   -8.8824   14.4317   -1.5454 C   0  0  0  0  0  0  0  0  0  0  0  0
   -9.0642   13.5389   -2.7705 C   0  0  1  0  0  0  0  0  0  0  0  0
   -8.8169   12.1319   -2.4545 N   0  0  0  0  0  0  0  0  0  0  0  0
   -9.5598   11.3911   -1.5228 C   0  0  0  0  0  0  0  0  0  0  0  0
   -9.0078   10.0136   -1.5973 C   0  0  0  0  0  0  0  0  0  0  0  0
   -9.3749    8.8871   -0.8763 C   0  0  0  0  0  0  0  0  0  0  0  0
   -8.6794    7.7104   -1.1511 C   0  0  0  0  0  0  0  0  0  0  0  0
   -7.6548    7.6653   -2.1057 C   0  0  0  0  0  0  0  0  0  0  0  0
   -7.2826    8.8097   -2.8402 C   0  0  0  0  0  0  0  0  0  0  0  0
   -6.2991    8.7954   -3.7860 N   0  0  0  0  0  0  0  0  0  0  0  0
   -5.4225    7.6592   -4.0138 C   0  0  0  0  0  0  0  0  0  0  0  0
   -4.3683    7.4509   -2.9219 C   0  0  0  0  0  0  0  0  0  0  0  0
   -3.6611    6.2495   -3.2275 O   0  0  0  0  0  0  0  0  0  0  0  0
   -2.7516    5.8805   -2.1948 C   0  0  0  0  0  0  0  0  0  0  0  0
   -2.0564    4.6006   -2.6248 C   0  0  0  0  0  0  0  0  0  0  0  0
   -1.2035    4.2153   -1.5494 O   0  0  0  0  0  0  0  0  0  0  0  0
   -0.5022    2.9997   -1.8000 C   0  0  0  0  0  0  0  0  0  0  0  0
    0.3090    2.6974   -0.5526 C   0  0  0  0  0  0  0  0  0  0  0  0
    1.0201    1.4839   -0.7782 O   0  0  0  0  0  0  0  0  0  0  0  0
    1.8210    1.1096    0.3429 C   0  0  0  0  0  0  0  0  0  0  0  0
    2.5426   -0.1804   -0.0156 C   0  0  0  0  0  0  0  0  0  0  0  0
    3.4410   -0.6588    1.1200 C   0  0  0  0  0  0  0  0  0  0  0  0
    4.2161   -1.7539    0.8898 N   0  0  0  0  0  0  0  0  0  0  0  0
    4.2169   -2.5972   -0.3038 C   0  0  0  0  0  0  0  0  0  0  0  0
    3.8663   -4.0400    0.0543 C   0  0  0  0  0  0  0  0  0  0  0  0
    5.1201   -2.2557    1.9254 C   0  0  0  0  0  0  0  0  0  0  0  0
    4.7335   -3.6793    2.2961 C   0  0  0  0  0  0  0  0  0  0  0  0
    4.7688   -4.5386    1.1009 N   0  0  0  0  0  0  0  0  0  0  0  0
    4.8999   -5.9136    1.2849 C   0  0  0  0  0  0  0  0  0  0  0  0
    4.1329   -6.8562    0.5698 C   0  0  0  0  0  0  0  0  0  0  0  0
    4.3447   -8.2155    0.7387 C   0  0  0  0  0  0  0  0  0  0  0  0
    5.8764   -6.4012    2.1807 C   0  0  0  0  0  0  0  0  0  0  0  0
    6.0765   -7.7556    2.3464 C   0  0  0  0  0  0  0  0  0  0  0  0
    5.3106   -8.7010    1.6393 C   0  0  0  0  0  0  0  0  0  0  0  0
    5.5402  -10.1509    1.7437 C   0  0  1  0  0  0  0  0  0  0  0  0
    5.2507  -10.8763    0.6690 N   0  0  0  0  0  0  0  0  0  0  0  0
    6.3794  -10.8538   -0.1410 N   0  0  0  0  0  0  0  0  0  0  0  0
    6.0901  -10.9823   -1.5148 C   0  0  0  0  0  0  0  0  0  0  0  0
    4.7643  -10.9750   -1.7819 N   0  0  0  0  0  0  0  0  0  0  0  0
    4.2917  -11.2115   -3.1375 C   0  0  0  0  0  0  0  0  0  0  0  0
    6.9776  -11.0671   -2.3626 O   0  0  0  0  0  0  0  0  0  0  0  0
    7.6789  -11.3302    0.3724 C   0  0  1  0  0  0  0  0  0  0  0  0
    8.6150  -10.1879    0.7717 C   0  0  0  0  0  0  0  0  0  0  0  0
    7.4382  -12.3761    1.4753 C   0  0  0  0  0  0  0  0  0  0  0  0
    7.0398  -11.8326    2.8181 C   0  0  0  0  0  0  0  0  0  0  0  0
    7.6141  -12.3609    3.9761 C   0  0  0  0  0  0  0  0  0  0  0  0
    7.2711  -11.8991    5.2383 C   0  0  0  0  0  0  0  0  0  0  0  0
    7.7964  -12.3714    6.3968 O   0  0  0  0  0  0  0  0  0  0  0  0
    8.7787  -13.4087    6.2880 C   0  0  0  0  0  0  0  0  0  0  0  0
    6.3039  -10.8665    5.3690 C   0  0  0  0  0  0  0  0  0  0  0  0
    5.9960  -10.4852    6.6343 O   0  0  0  0  0  0  0  0  0  0  0  0
    4.9669   -9.4997    6.7814 C   0  0  0  0  0  0  0  0  0  0  0  0
    5.7531  -10.3147    4.2272 C   0  0  0  0  0  0  0  0  0  0  0  0
    6.1154  -10.7686    2.9411 C   0  0  0  0  0  0  0  0  0  0  0  0
    3.4550   -0.0660    2.2020 O   0  0  0  0  0  0  0  0  0  0  0  0
   -8.0012    9.9951   -2.5567 C   0  0  0  0  0  0  0  0  0  0  0  0
   -7.8717   11.3506   -3.1344 C   0  0  0  0  0  0  0  0  0  0  0  0
   -7.1240   11.7604   -4.0133 O   0  0  0  0  0  0  0  0  0  0  0  0
  -10.4529   11.8259   -0.8217 O   0  0  0  0  0  0  0  0  0  0  0  0
  -10.4247   13.7664   -3.4366 C   0  0  0  0  0  0  0  0  0  0  0  0
  -10.5561   15.2367   -3.8130 C   0  0  0  0  0  0  0  0  0  0  0  0
   -9.5229   15.6596   -1.6271 N   0  0  0  0  0  0  0  0  0  0  0  0
  -10.3238   16.1601   -2.6479 C   0  0  0  0  0  0  0  0  0  0  0  0
  -10.7715   17.2950   -2.5815 O   0  0  0  0  0  0  0  0  0  0  0  0
   -8.2757   13.8200   -3.4811 H   0  0  0  0  0  0  0  0  0  0  0  0
  -10.1672    8.9338   -0.1361 H   0  0  0  0  0  0  0  0  0  0  0  0
   -8.9317    6.7994   -0.6151 H   0  0  0  0  0  0  0  0  0  0  0  0
   -7.1370    6.7228   -2.2637 H   0  0  0  0  0  0  0  0  0  0  0  0
   -6.0608    9.6905   -4.1923 H   0  0  0  0  0  0  0  0  0  0  0  0
   -6.0217    6.7448   -4.1077 H   0  0  0  0  0  0  0  0  0  0  0  0
   -4.9144    7.8205   -4.9708 H   0  0  0  0  0  0  0  0  0  0  0  0
   -3.6708    8.3053   -2.8880 H   0  0  0  0  0  0  0  0  0  0  0  0
   -4.8501    7.3737   -1.9332 H   0  0  0  0  0  0  0  0  0  0  0  0
   -2.0066    6.6743   -2.0233 H   0  0  0  0  0  0  0  0  0  0  0  0
   -3.2867    5.7017   -1.2486 H   0  0  0  0  0  0  0  0  0  0  0  0
   -2.8055    3.8188   -2.8288 H   0  0  0  0  0  0  0  0  0  0  0  0
   -1.4743    4.7684   -3.5454 H   0  0  0  0  0  0  0  0  0  0  0  0
   -1.2058    2.1761   -2.0010 H   0  0  0  0  0  0  0  0  0  0  0  0
    0.1640    3.1047   -2.6709 H   0  0  0  0  0  0  0  0  0  0  0  0
    1.0047    3.5277   -0.3518 H   0  0  0  0  0  0  0  0  0  0  0  0
   -0.3668    2.5998    0.3120 H   0  0  0  0  0  0  0  0  0  0  0  0
    2.5477    1.9031    0.5759 H   0  0  0  0  0  0  0  0  0  0  0  0
    1.1918    0.9627    1.2340 H   0  0  0  0  0  0  0  0  0  0  0  0
    1.7991   -0.9564   -0.2470 H   0  0  0  0  0  0  0  0  0  0  0  0
    3.1358   -0.0222   -0.9265 H   0  0  0  0  0  0  0  0  0  0  0  0
    3.5159   -2.2237   -1.0529 H   0  0  0  0  0  0  0  0  0  0  0  0
    5.2262   -2.5847   -0.7408 H   0  0  0  0  0  0  0  0  0  0  0  0
    2.8123   -4.0955    0.3853 H   0  0  0  0  0  0  0  0  0  0  0  0
    3.9774   -4.6463   -0.8506 H   0  0  0  0  0  0  0  0  0  0  0  0
    6.1493   -2.2512    1.5362 H   0  0  0  0  0  0  0  0  0  0  0  0
    5.0649   -1.5977    2.7962 H   0  0  0  0  0  0  0  0  0  0  0  0
    5.4241   -4.0494    3.0568 H   0  0  0  0  0  0  0  0  0  0  0  0
    3.7226   -3.6820    2.7457 H   0  0  0  0  0  0  0  0  0  0  0  0
    3.3567   -6.5244   -0.1117 H   0  0  0  0  0  0  0  0  0  0  0  0
    3.7423   -8.9257    0.1770 H   0  0  0  0  0  0  0  0  0  0  0  0
    6.5010   -5.7019    2.7271 H   0  0  0  0  0  0  0  0  0  0  0  0
    6.8401   -8.0945    3.0436 H   0  0  0  0  0  0  0  0  0  0  0  0
    4.1484  -11.1482   -0.9977 H   0  0  0  0  0  0  0  0  0  0  0  0
    4.5622  -12.2103   -3.5065 H   0  0  0  0  0  0  0  0  0  0  0  0
    4.7169  -10.4670   -3.8179 H   0  0  0  0  0  0  0  0  0  0  0  0
    3.2037  -11.1114   -3.1473 H   0  0  0  0  0  0  0  0  0  0  0  0
    8.1462  -11.8454   -0.4784 H   0  0  0  0  0  0  0  0  0  0  0  0
    9.5498  -10.6173    1.1485 H   0  0  0  0  0  0  0  0  0  0  0  0
    8.1943   -9.5473    1.5579 H   0  0  0  0  0  0  0  0  0  0  0  0
    8.8435   -9.5627   -0.0991 H   0  0  0  0  0  0  0  0  0  0  0  0
    6.6579  -13.0537    1.1015 H   0  0  0  0  0  0  0  0  0  0  0  0
    8.3533  -12.9642    1.5973 H   0  0  0  0  0  0  0  0  0  0  0  0
    8.3548  -13.1483    3.8759 H   0  0  0  0  0  0  0  0  0  0  0  0
    9.0785  -13.6415    7.3132 H   0  0  0  0  0  0  0  0  0  0  0  0
    9.6528  -13.0671    5.7183 H   0  0  0  0  0  0  0  0  0  0  0  0
    8.3558  -14.3061    5.8175 H   0  0  0  0  0  0  0  0  0  0  0  0
    4.8369   -9.3628    7.8582 H   0  0  0  0  0  0  0  0  0  0  0  0
    4.0236   -9.8469    6.3382 H   0  0  0  0  0  0  0  0  0  0  0  0
    5.2664   -8.5470    6.3234 H   0  0  0  0  0  0  0  0  0  0  0  0
    5.0382   -9.4996    4.2960 H   0  0  0  0  0  0  0  0  0  0  0  0
  -10.4803   13.1382   -4.3309 H   0  0  0  0  0  0  0  0  0  0  0  0
  -11.2291   13.4631   -2.7568 H   0  0  0  0  0  0  0  0  0  0  0  0
   -9.8167   15.5004   -4.5834 H   0  0  0  0  0  0  0  0  0  0  0  0
  -11.5428   15.4593   -4.2287 H   0  0  0  0  0  0  0  0  0  0  0  0
   -9.3749   16.2832   -0.8377 H   0  0  0  0  0  0  0  0  0  0  0  0
  1  2  2  0
  2  3  1  0
  3  4  1  0
  4  5  1  0
  5  6  1  0
  6  7  1  0
  7  8  2  0
  8  9  1  0
  9 10  2  0
 10 11  1  0
 11 12  1  0
 12 13  1  0
 13 14  1  0
 14 15  1  0
 15 16  1  0
 16 17  1  0
 17 18  1  0
 18 19  1  0
 19 20  1  0
 20 21  1  0
 21 22  1  0
 22 23  1  0
 23 24  1  0
 24 25  1  0
 25 26  1  0
 24 27  1  0
 27 28  1  0
 26 29  1  0
 28 29  1  0
 29 30  1  0
 30 31  2  0
 31 32  1  0
 30 33  1  0
 33 34  2  0
 32 35  2  0
 34 35  1  0
 36 35  1  6
 36 37  1  0
 37 38  1  0
 38 39  1  0
 39 40  1  0
 40 41  1  0
 39 42  2  0
 38 43  1  0
 43 44  1  0
 43 45  1  0
 45 46  1  0
 46 47  2  0
 47 48  1  0
 48 49  1  0
 49 50  1  0
 48 51  2  0
 51 52  1  0
 52 53  1  0
 51 54  1  0
 54 55  2  0
 46 55  1  0
 36 55  1  0
 23 56  2  0
  6 57  2  0
 10 57  1  0
 57 58  1  0
  4 58  1  0
 58 59  2  0
  5 60  2  0
  3 61  1  0
 61 62  1  0
  2 63  1  0
 63 64  1  0
 62 64  1  0
 64 65  2  0
  3 66  1  6
  7 67  1  0
  8 68  1  0
  9 69  1  0
 11 70  1  0
 12 71  1  0
 12 72  1  0
 13 73  1  0
 13 74  1  0
 15 75  1  0
 15 76  1  0
 16 77  1  0
 16 78  1  0
 18 79  1  0
 18 80  1  0
 19 81  1  0
 19 82  1  0
 21 83  1  0
 21 84  1  0
 22 85  1  0
 22 86  1  0
 25 87  1  0
 25 88  1  0
 26 89  1  0
 26 90  1  0
 27 91  1  0
 27 92  1  0
 28 93  1  0
 28 94  1  0
 31 95  1  0
 32 96  1  0
 33 97  1  0
 34 98  1  0
 40 99  1  0
 41100  1  0
 41101  1  0
 41102  1  0
 43103  1  6
 44104  1  0
 44105  1  0
 44106  1  0
 45107  1  0
 45108  1  0
 47109  1  0
 50110  1  0
 50111  1  0
 50112  1  0
 53113  1  0
 53114  1  0
 53115  1  0
 54116  1  0
 61117  1  0
 61118  1  0
 62119  1  0
 62120  1  0
 63121  1  0
M  END
>  <ANI_energy(hartree)>  (1) 
-3051.598502800359

>  <ANI_energy(kcal/mol)>  (1) 
-1914905.5248937504

$$$$
