
     RDKit          3D

121127  0  0  1  0  0  0  0  0999 V2000
   -8.3702   14.6526   -2.1220 O   0  0  0  0  0  0  0  0  0  0  0  0
   -9.3025   14.3281   -2.8361 C   0  0  0  0  0  0  0  0  0  0  0  0
   -9.6368   12.8930   -3.2320 C   0  0  1  0  0  0  0  0  0  0  0  0
   -9.1085   11.9295   -2.2661 N   0  0  0  0  0  0  0  0  0  0  0  0
   -9.4801   11.8795   -0.9130 C   0  0  0  0  0  0  0  0  0  0  0  0
   -8.7930   10.6786   -0.3683 C   0  0  0  0  0  0  0  0  0  0  0  0
   -8.8045   10.1731    0.9235 C   0  0  0  0  0  0  0  0  0  0  0  0
   -8.0752    9.0058    1.1492 C   0  0  0  0  0  0  0  0  0  0  0  0
   -7.3621    8.3710    0.1239 C   0  0  0  0  0  0  0  0  0  0  0  0
   -7.3477    8.8861   -1.1883 C   0  0  0  0  0  0  0  0  0  0  0  0
   -6.6707    8.2940   -2.2104 N   0  0  0  0  0  0  0  0  0  0  0  0
   -5.9295    7.0538   -2.0825 C   0  0  0  0  0  0  0  0  0  0  0  0
   -4.5404    7.2125   -1.4571 C   0  0  0  0  0  0  0  0  0  0  0  0
   -3.9713    5.9072   -1.3826 O   0  0  0  0  0  0  0  0  0  0  0  0
   -2.6762    5.8840   -0.7890 C   0  0  0  0  0  0  0  0  0  0  0  0
   -2.1714    4.4598   -0.9289 C   0  0  0  0  0  0  0  0  0  0  0  0
   -0.8798    4.3801   -0.3303 O   0  0  0  0  0  0  0  0  0  0  0  0
   -0.3052    3.0879   -0.5097 C   0  0  0  0  0  0  0  0  0  0  0  0
    1.0158    3.0384    0.2365 C   0  0  0  0  0  0  0  0  0  0  0  0
    1.5483    1.7398   -0.0007 O   0  0  0  0  0  0  0  0  0  0  0  0
    2.7690    1.4739    0.6891 C   0  0  0  0  0  0  0  0  0  0  0  0
    3.2152    0.0941    0.2322 C   0  0  0  0  0  0  0  0  0  0  0  0
    4.5079   -0.3727    0.8854 C   0  0  0  0  0  0  0  0  0  0  0  0
    5.0124   -1.5629    0.4583 N   0  0  0  0  0  0  0  0  0  0  0  0
    4.4362   -2.4358   -0.5628 C   0  0  0  0  0  0  0  0  0  0  0  0
    4.1648   -3.8118    0.0286 C   0  0  0  0  0  0  0  0  0  0  0  0
    6.2420   -2.1152    1.0280 C   0  0  0  0  0  0  0  0  0  0  0  0
    5.9959   -3.5111    1.5915 C   0  0  0  0  0  0  0  0  0  0  0  0
    5.4110   -4.3872    0.5652 N   0  0  0  0  0  0  0  0  0  0  0  0
    5.4539   -5.7683    0.7602 C   0  0  0  0  0  0  0  0  0  0  0  0
    4.9869   -6.6271   -0.2562 C   0  0  0  0  0  0  0  0  0  0  0  0
    5.0620   -8.0004   -0.1188 C   0  0  0  0  0  0  0  0  0  0  0  0
    5.9981   -6.3603    1.9203 C   0  0  0  0  0  0  0  0  0  0  0  0
    6.0652   -7.7357    2.0514 C   0  0  0  0  0  0  0  0  0  0  0  0
    5.5874   -8.5944    1.0452 C   0  0  0  0  0  0  0  0  0  0  0  0
    5.6888  -10.0600    1.1178 C   0  0  1  0  0  0  0  0  0  0  0  0
    5.7433  -10.7069   -0.0421 N   0  0  0  0  0  0  0  0  0  0  0  0
    7.0784  -10.7158   -0.4226 N   0  0  0  0  0  0  0  0  0  0  0  0
    7.2708  -10.7219   -1.8177 C   0  0  0  0  0  0  0  0  0  0  0  0
    6.1169  -10.5912   -2.5109 N   0  0  0  0  0  0  0  0  0  0  0  0
    6.1141  -10.6738   -3.9628 C   0  0  0  0  0  0  0  0  0  0  0  0
    8.3897  -10.8141   -2.3211 O   0  0  0  0  0  0  0  0  0  0  0  0
    8.1035  -11.3068    0.4575 C   0  0  1  0  0  0  0  0  0  0  0  0
    8.8942  -10.2550    1.2378 C   0  0  0  0  0  0  0  0  0  0  0  0
    7.4566  -12.3953    1.3321 C   0  0  0  0  0  0  0  0  0  0  0  0
    6.6504  -11.9017    2.5001 C   0  0  0  0  0  0  0  0  0  0  0  0
    6.7695  -12.5342    3.7393 C   0  0  0  0  0  0  0  0  0  0  0  0
    6.0529  -12.1101    4.8489 C   0  0  0  0  0  0  0  0  0  0  0  0
    6.1354  -12.6800    6.0776 O   0  0  0  0  0  0  0  0  0  0  0  0
    7.0378  -13.7841    6.2200 C   0  0  0  0  0  0  0  0  0  0  0  0
    5.1598  -11.0115    4.7299 C   0  0  0  0  0  0  0  0  0  0  0  0
    4.4786  -10.6607    5.8496 O   0  0  0  0  0  0  0  0  0  0  0  0
    3.5404   -9.5851    5.7252 C   0  0  0  0  0  0  0  0  0  0  0  0
    5.0460  -10.3692    3.5108 C   0  0  0  0  0  0  0  0  0  0  0  0
    5.7943  -10.7803    2.3881 C   0  0  0  0  0  0  0  0  0  0  0  0
    5.0575    0.2992    1.7623 O   0  0  0  0  0  0  0  0  0  0  0  0
   -8.0890   10.0722   -1.4018 C   0  0  0  0  0  0  0  0  0  0  0  0
   -8.2911   10.8537   -2.6392 C   0  0  0  0  0  0  0  0  0  0  0  0
   -7.8661   10.6542   -3.7705 O   0  0  0  0  0  0  0  0  0  0  0  0
  -10.2128   12.6694   -0.3502 O   0  0  0  0  0  0  0  0  0  0  0  0
  -11.1357   12.7149   -3.4946 C   0  0  0  0  0  0  0  0  0  0  0  0
  -11.5669   13.6868   -4.5852 C   0  0  0  0  0  0  0  0  0  0  0  0
  -10.1183   15.2887   -3.4160 N   0  0  0  0  0  0  0  0  0  0  0  0
  -11.1992   15.1124   -4.2733 C   0  0  0  0  0  0  0  0  0  0  0  0
  -11.7744   16.0804   -4.7475 O   0  0  0  0  0  0  0  0  0  0  0  0
   -9.0944   12.6929   -4.1656 H   0  0  0  0  0  0  0  0  0  0  0  0
   -9.3613   10.6715    1.7106 H   0  0  0  0  0  0  0  0  0  0  0  0
   -8.0578    8.5671    2.1435 H   0  0  0  0  0  0  0  0  0  0  0  0
   -6.8080    7.4659    0.3593 H   0  0  0  0  0  0  0  0  0  0  0  0
   -6.7084    8.7673   -3.1033 H   0  0  0  0  0  0  0  0  0  0  0  0
   -6.5031    6.3330   -1.4845 H   0  0  0  0  0  0  0  0  0  0  0  0
   -5.8088    6.6323   -3.0865 H   0  0  0  0  0  0  0  0  0  0  0  0
   -3.9080    7.8700   -2.0775 H   0  0  0  0  0  0  0  0  0  0  0  0
   -4.6115    7.6663   -0.4538 H   0  0  0  0  0  0  0  0  0  0  0  0
   -1.9928    6.5797   -1.3025 H   0  0  0  0  0  0  0  0  0  0  0  0
   -2.7236    6.1688    0.2740 H   0  0  0  0  0  0  0  0  0  0  0  0
   -2.8716    3.7685   -0.4335 H   0  0  0  0  0  0  0  0  0  0  0  0
   -2.1234    4.1910   -1.9961 H   0  0  0  0  0  0  0  0  0  0  0  0
   -0.9755    2.3064   -0.1181 H   0  0  0  0  0  0  0  0  0  0  0  0
   -0.1309    2.8847   -1.5784 H   0  0  0  0  0  0  0  0  0  0  0  0
    1.6973    3.8189   -0.1378 H   0  0  0  0  0  0  0  0  0  0  0  0
    0.8526    3.2100    1.3128 H   0  0  0  0  0  0  0  0  0  0  0  0
    3.5294    2.2313    0.4435 H   0  0  0  0  0  0  0  0  0  0  0  0
    2.6117    1.4976    1.7781 H   0  0  0  0  0  0  0  0  0  0  0  0
    2.4152   -0.6245    0.4598 H   0  0  0  0  0  0  0  0  0  0  0  0
    3.3303    0.1099   -0.8597 H   0  0  0  0  0  0  0  0  0  0  0  0
    3.5124   -2.0201   -0.9679 H   0  0  0  0  0  0  0  0  0  0  0  0
    5.1573   -2.5403   -1.3865 H   0  0  0  0  0  0  0  0  0  0  0  0
    3.4038   -3.7289    0.8281 H   0  0  0  0  0  0  0  0  0  0  0  0
    3.7467   -4.4525   -0.7486 H   0  0  0  0  0  0  0  0  0  0  0  0
    7.0056   -2.1827    0.2374 H   0  0  0  0  0  0  0  0  0  0  0  0
    6.6060   -1.4449    1.8112 H   0  0  0  0  0  0  0  0  0  0  0  0
    6.9599   -3.9166    1.9178 H   0  0  0  0  0  0  0  0  0  0  0  0
    5.3303   -3.4432    2.4716 H   0  0  0  0  0  0  0  0  0  0  0  0
    4.5868   -6.2100   -1.1755 H   0  0  0  0  0  0  0  0  0  0  0  0
    4.6763   -8.6347   -0.9127 H   0  0  0  0  0  0  0  0  0  0  0  0
    6.3536   -5.7398    2.7341 H   0  0  0  0  0  0  0  0  0  0  0  0
    6.5123   -8.1594    2.9486 H   0  0  0  0  0  0  0  0  0  0  0  0
    5.2644  -10.7674   -1.9947 H   0  0  0  0  0  0  0  0  0  0  0  0
    6.8198   -9.9487   -4.3794 H   0  0  0  0  0  0  0  0  0  0  0  0
    5.1114  -10.4273   -4.3211 H   0  0  0  0  0  0  0  0  0  0  0  0
    6.3891  -11.6727   -4.3290 H   0  0  0  0  0  0  0  0  0  0  0  0
    8.8095  -11.8012   -0.2244 H   0  0  0  0  0  0  0  0  0  0  0  0
    9.4040   -9.5754    0.5458 H   0  0  0  0  0  0  0  0  0  0  0  0
    9.6466  -10.7665    1.8478 H   0  0  0  0  0  0  0  0  0  0  0  0
    8.2630   -9.6573    1.9092 H   0  0  0  0  0  0  0  0  0  0  0  0
    6.8200  -12.9964    0.6683 H   0  0  0  0  0  0  0  0  0  0  0  0
    8.2488  -13.0493    1.7092 H   0  0  0  0  0  0  0  0  0  0  0  0
    7.4513  -13.3741    3.8302 H   0  0  0  0  0  0  0  0  0  0  0  0
    6.9760  -14.0841    7.2695 H   0  0  0  0  0  0  0  0  0  0  0  0
    8.0682  -13.4861    5.9848 H   0  0  0  0  0  0  0  0  0  0  0  0
    6.7383  -14.6245    5.5796 H   0  0  0  0  0  0  0  0  0  0  0  0
    3.0847   -9.4696    6.7119 H   0  0  0  0  0  0  0  0  0  0  0  0
    2.7632   -9.8240    4.9864 H   0  0  0  0  0  0  0  0  0  0  0  0
    4.0470   -8.6515    5.4443 H   0  0  0  0  0  0  0  0  0  0  0  0
    4.3880   -9.5124    3.3965 H   0  0  0  0  0  0  0  0  0  0  0  0
  -11.3115   11.6826   -3.8131 H   0  0  0  0  0  0  0  0  0  0  0  0
  -11.7004   12.8894   -2.5717 H   0  0  0  0  0  0  0  0  0  0  0  0
  -11.0817   13.4302   -5.5385 H   0  0  0  0  0  0  0  0  0  0  0  0
  -12.6464   13.6475   -4.7562 H   0  0  0  0  0  0  0  0  0  0  0  0
   -9.8804   16.2535   -3.2003 H   0  0  0  0  0  0  0  0  0  0  0  0
  1  2  2  0
  2  3  1  0
  3  4  1  0
  4  5  1  0
  5  6  1  0
  6  7  2  0
  7  8  1  0
  8  9  2  0
  9 10  1  0
 10 11  1  0
 11 12  1  0
 12 13  1  0
 13 14  1  0
 14 15  1  0
 15 16  1  0
 16 17  1  0
 17 18  1  0
 18 19  1  0
 19 20  1  0
 20 21  1  0
 21 22  1  0
 22 23  1  0
 23 24  1  0
 24 25  1  0
 25 26  1  0
 24 27  1  0
 27 28  1  0
 26 29  1  0
 28 29  1  0
 29 30  1  0
 30 31  2  0
 31 32  1  0
 30 33  1  0
 33 34  2  0
 34 35  1  0
 32 35  2  0
 36 35  1  6
 36 37  1  0
 37 38  1  0
 38 39  1  0
 39 40  1  0
 40 41  1  0
 39 42  2  0
 38 43  1  0
 43 44  1  0
 43 45  1  0
 45 46  1  0
 46 47  2  0
 47 48  1  0
 48 49  1  0
 49 50  1  0
 48 51  2  0
 51 52  1  0
 52 53  1  0
 51 54  1  0
 54 55  2  0
 46 55  1  0
 36 55  1  0
 23 56  2  0
 10 57  2  0
  6 57  1  0
  4 58  1  0
 57 58  1  0
 58 59  2  0
  5 60  2  0
  3 61  1  0
 61 62  1  0
  2 63  1  0
 62 64  1  0
 63 64  1  0
 64 65  2  0
  3 66  1  6
  7 67  1  0
  8 68  1  0
  9 69  1  0
 11 70  1  0
 12 71  1  0
 12 72  1  0
 13 73  1  0
 13 74  1  0
 15 75  1  0
 15 76  1  0
 16 77  1  0
 16 78  1  0
 18 79  1  0
 18 80  1  0
 19 81  1  0
 19 82  1  0
 21 83  1  0
 21 84  1  0
 22 85  1  0
 22 86  1  0
 25 87  1  0
 25 88  1  0
 26 89  1  0
 26 90  1  0
 27 91  1  0
 27 92  1  0
 28 93  1  0
 28 94  1  0
 31 95  1  0
 32 96  1  0
 33 97  1  0
 34 98  1  0
 40 99  1  0
 41100  1  0
 41101  1  0
 41102  1  0
 43103  1  6
 44104  1  0
 44105  1  0
 44106  1  0
 45107  1  0
 45108  1  0
 47109  1  0
 50110  1  0
 50111  1  0
 50112  1  0
 53113  1  0
 53114  1  0
 53115  1  0
 54116  1  0
 61117  1  0
 61118  1  0
 62119  1  0
 62120  1  0
 63121  1  0
M  END
>  <ANI_energy(hartree)>  (1) 
-3051.597998545064

>  <ANI_energy(kcal/mol)>  (1) 
-1914905.2084690146

$$$$
