
     RDKit          3D

121127  0  0  1  0  0  0  0  0999 V2000
   -3.5023   13.8565    2.6431 O   0  0  0  0  0  0  0  0  0  0  0  0
   -4.1320   13.2698    1.7805 C   0  0  0  0  0  0  0  0  0  0  0  0
   -4.2712   11.7521    1.6868 C   0  0  1  0  0  0  0  0  0  0  0  0
   -4.0952   11.1124    2.9910 N   0  0  0  0  0  0  0  0  0  0  0  0
   -4.8949   11.3739    4.1157 C   0  0  0  0  0  0  0  0  0  0  0  0
   -4.3526   10.4977    5.1865 C   0  0  0  0  0  0  0  0  0  0  0  0
   -4.7554   10.3716    6.5075 C   0  0  0  0  0  0  0  0  0  0  0  0
   -4.0488    9.4673    7.3006 C   0  0  0  0  0  0  0  0  0  0  0  0
   -2.9757    8.7233    6.7909 C   0  0  0  0  0  0  0  0  0  0  0  0
   -2.5683    8.8578    5.4510 C   0  0  0  0  0  0  0  0  0  0  0  0
   -1.5239    8.1712    4.9164 N   0  0  0  0  0  0  0  0  0  0  0  0
   -0.6870    7.2601    5.6632 C   0  0  0  0  0  0  0  0  0  0  0  0
    0.5114    6.8921    4.8164 C   0  0  0  0  0  0  0  0  0  0  0  0
    0.0132    6.2889    3.6156 O   0  0  0  0  0  0  0  0  0  0  0  0
    1.0358    5.8708    2.7096 C   0  0  0  0  0  0  0  0  0  0  0  0
    1.4168    4.4100    2.8775 C   0  0  0  0  0  0  0  0  0  0  0  0
    2.0247    4.2394    4.1587 O   0  0  0  0  0  0  0  0  0  0  0  0
    2.0424    2.8910    4.6305 C   0  0  0  0  0  0  0  0  0  0  0  0
    3.0910    2.0190    3.9686 C   0  0  0  0  0  0  0  0  0  0  0  0
    2.6440    1.6028    2.6780 O   0  0  0  0  0  0  0  0  0  0  0  0
    3.6711    0.9192    1.9542 C   0  0  0  0  0  0  0  0  0  0  0  0
    3.0190    0.1961    0.7848 C   0  0  0  0  0  0  0  0  0  0  0  0
    4.0494   -0.5353   -0.0673 C   0  0  0  0  0  0  0  0  0  0  0  0
    3.6088   -1.5492   -0.8581 N   0  0  0  0  0  0  0  0  0  0  0  0
    2.2140   -2.0134   -0.8863 C   0  0  0  0  0  0  0  0  0  0  0  0
    1.9738   -2.8980   -2.1062 C   0  0  0  0  0  0  0  0  0  0  0  0
    4.5712   -2.3447   -1.6327 C   0  0  0  0  0  0  0  0  0  0  0  0
    4.2074   -3.8178   -1.5311 C   0  0  0  0  0  0  0  0  0  0  0  0
    2.8802   -4.0455   -2.1016 N   0  0  0  0  0  0  0  0  0  0  0  0
    2.5237   -5.2650   -2.6168 C   0  0  0  0  0  0  0  0  0  0  0  0
    1.4390   -5.3930   -3.5120 C   0  0  0  0  0  0  0  0  0  0  0  0
    1.0845   -6.6315   -4.0242 C   0  0  0  0  0  0  0  0  0  0  0  0
    3.2382   -6.4314   -2.2675 C   0  0  0  0  0  0  0  0  0  0  0  0
    2.8603   -7.6634   -2.7691 C   0  0  0  0  0  0  0  0  0  0  0  0
    1.7727   -7.7958   -3.6474 C   0  0  0  0  0  0  0  0  0  0  0  0
    1.3541   -9.1304   -4.1426 C   0  0  0  0  0  0  0  0  0  0  0  0
    1.5080   -9.3871   -5.4280 N   0  0  0  0  0  0  0  0  0  0  0  0
    2.6962  -10.1041   -5.5339 N   0  0  0  0  0  0  0  0  0  0  0  0
    3.4462   -9.7763   -6.6841 C   0  0  0  0  0  0  0  0  0  0  0  0
    2.9487   -8.7302   -7.3693 N   0  0  0  0  0  0  0  0  0  0  0  0
    3.6193   -8.2381   -8.5607 C   0  0  0  0  0  0  0  0  0  0  0  0
    4.4575  -10.4043   -6.9969 O   0  0  0  0  0  0  0  0  0  0  0  0
    2.7584  -11.4837   -5.0237 C   0  0  1  0  0  0  0  0  0  0  0  0
    3.6886  -11.6186   -3.8181 C   0  0  0  0  0  0  0  0  0  0  0  0
    1.3310  -12.0011   -4.7809 C   0  0  0  0  0  0  0  0  0  0  0  0
    0.6874  -11.4695   -3.5372 C   0  0  0  0  0  0  0  0  0  0  0  0
    0.0894  -12.3393   -2.6243 C   0  0  0  0  0  0  0  0  0  0  0  0
   -0.4754  -11.8814   -1.4343 C   0  0  0  0  0  0  0  0  0  0  0  0
   -1.0364  -12.6917   -0.5047 O   0  0  0  0  0  0  0  0  0  0  0  0
   -1.0483  -14.0965   -0.7735 C   0  0  0  0  0  0  0  0  0  0  0  0
   -0.4509  -10.4995   -1.1345 C   0  0  0  0  0  0  0  0  0  0  0  0
   -0.9243   -9.9607    0.0290 O   0  0  0  0  0  0  0  0  0  0  0  0
   -2.2434  -10.3341    0.4935 C   0  0  0  0  0  0  0  0  0  0  0  0
    0.1736   -9.6389   -2.0172 C   0  0  0  0  0  0  0  0  0  0  0  0
    0.7435  -10.0881   -3.2267 C   0  0  0  0  0  0  0  0  0  0  0  0
    5.2360   -0.1945   -0.0401 O   0  0  0  0  0  0  0  0  0  0  0  0
   -3.2979    9.7649    4.6564 C   0  0  0  0  0  0  0  0  0  0  0  0
   -3.1241   10.1318    3.2369 C   0  0  0  0  0  0  0  0  0  0  0  0
   -2.3254    9.7036    2.4130 O   0  0  0  0  0  0  0  0  0  0  0  0
   -5.8197   12.1618    4.1584 O   0  0  0  0  0  0  0  0  0  0  0  0
   -5.5772   11.3444    0.9993 C   0  0  0  0  0  0  0  0  0  0  0  0
   -5.6367   11.9856   -0.3814 C   0  0  0  0  0  0  0  0  0  0  0  0
   -4.7349   13.9702    0.7462 N   0  0  0  0  0  0  0  0  0  0  0  0
   -5.4530   13.4784   -0.3383 C   0  0  0  0  0  0  0  0  0  0  0  0
   -5.8700   14.2391   -1.1985 O   0  0  0  0  0  0  0  0  0  0  0  0
   -3.4297   11.3991    1.0760 H   0  0  0  0  0  0  0  0  0  0  0  0
   -5.5849   10.9551    6.8941 H   0  0  0  0  0  0  0  0  0  0  0  0
   -4.3278    9.3333    8.3427 H   0  0  0  0  0  0  0  0  0  0  0  0
   -2.4538    8.0279    7.4450 H   0  0  0  0  0  0  0  0  0  0  0  0
   -1.4186    8.2288    3.9106 H   0  0  0  0  0  0  0  0  0  0  0  0
   -0.3439    7.7360    6.5937 H   0  0  0  0  0  0  0  0  0  0  0  0
   -1.2327    6.3468    5.9582 H   0  0  0  0  0  0  0  0  0  0  0  0
    1.0782    7.8046    4.5668 H   0  0  0  0  0  0  0  0  0  0  0  0
    1.1759    6.2070    5.3551 H   0  0  0  0  0  0  0  0  0  0  0  0
    0.6367    6.0092    1.6947 H   0  0  0  0  0  0  0  0  0  0  0  0
    1.9321    6.5056    2.8059 H   0  0  0  0  0  0  0  0  0  0  0  0
    0.5171    3.7770    2.7948 H   0  0  0  0  0  0  0  0  0  0  0  0
    2.1172    4.1245    2.0784 H   0  0  0  0  0  0  0  0  0  0  0  0
    2.2848    2.9577    5.6984 H   0  0  0  0  0  0  0  0  0  0  0  0
    1.0450    2.4278    4.5418 H   0  0  0  0  0  0  0  0  0  0  0  0
    4.0388    2.5803    3.8941 H   0  0  0  0  0  0  0  0  0  0  0  0
    3.2622    1.1335    4.6027 H   0  0  0  0  0  0  0  0  0  0  0  0
    4.4255    1.6358    1.5948 H   0  0  0  0  0  0  0  0  0  0  0  0
    4.1868    0.1939    2.6044 H   0  0  0  0  0  0  0  0  0  0  0  0
    2.2490   -0.4885    1.1620 H   0  0  0  0  0  0  0  0  0  0  0  0
    2.5115    0.9339    0.1439 H   0  0  0  0  0  0  0  0  0  0  0  0
    1.9646   -2.5720    0.0305 H   0  0  0  0  0  0  0  0  0  0  0  0
    1.5395   -1.1526   -0.9507 H   0  0  0  0  0  0  0  0  0  0  0  0
    0.9370   -3.2492   -2.0687 H   0  0  0  0  0  0  0  0  0  0  0  0
    2.0897   -2.2921   -3.0222 H   0  0  0  0  0  0  0  0  0  0  0  0
    4.5772   -2.0272   -2.6869 H   0  0  0  0  0  0  0  0  0  0  0  0
    5.5703   -2.1713   -1.2281 H   0  0  0  0  0  0  0  0  0  0  0  0
    4.9535   -4.4043   -2.0822 H   0  0  0  0  0  0  0  0  0  0  0  0
    4.2562   -4.1290   -0.4723 H   0  0  0  0  0  0  0  0  0  0  0  0
    0.8834   -4.5127   -3.8248 H   0  0  0  0  0  0  0  0  0  0  0  0
    0.2347   -6.6974   -4.7020 H   0  0  0  0  0  0  0  0  0  0  0  0
    4.0809   -6.3655   -1.5858 H   0  0  0  0  0  0  0  0  0  0  0  0
    3.4279   -8.5544   -2.4997 H   0  0  0  0  0  0  0  0  0  0  0  0
    2.0889   -8.3204   -7.0322 H   0  0  0  0  0  0  0  0  0  0  0  0
    3.0642   -7.3772   -8.9399 H   0  0  0  0  0  0  0  0  0  0  0  0
    3.6602   -9.0081   -9.3403 H   0  0  0  0  0  0  0  0  0  0  0  0
    4.6456   -7.9269   -8.3334 H   0  0  0  0  0  0  0  0  0  0  0  0
    3.2004  -12.0834   -5.8351 H   0  0  0  0  0  0  0  0  0  0  0  0
    4.6943  -11.2719   -4.0786 H   0  0  0  0  0  0  0  0  0  0  0  0
    3.7472  -12.6769   -3.5374 H   0  0  0  0  0  0  0  0  0  0  0  0
    3.3313  -11.0557   -2.9472 H   0  0  0  0  0  0  0  0  0  0  0  0
    0.7322  -11.7383   -5.6631 H   0  0  0  0  0  0  0  0  0  0  0  0
    1.3679  -13.0930   -4.7190 H   0  0  0  0  0  0  0  0  0  0  0  0
    0.0836  -13.4030   -2.8409 H   0  0  0  0  0  0  0  0  0  0  0  0
   -1.6246  -14.3181   -1.6806 H   0  0  0  0  0  0  0  0  0  0  0  0
   -1.5353  -14.5595    0.0878 H   0  0  0  0  0  0  0  0  0  0  0  0
   -0.0287  -14.4910   -0.8730 H   0  0  0  0  0  0  0  0  0  0  0  0
   -2.5931   -9.4836    1.0866 H   0  0  0  0  0  0  0  0  0  0  0  0
   -2.1973  -11.2301    1.1215 H   0  0  0  0  0  0  0  0  0  0  0  0
   -2.9260  -10.4971   -0.3501 H   0  0  0  0  0  0  0  0  0  0  0  0
    0.2106   -8.5752   -1.7807 H   0  0  0  0  0  0  0  0  0  0  0  0
   -5.5947   10.2536    0.9131 H   0  0  0  0  0  0  0  0  0  0  0  0
   -6.4320   11.6526    1.6118 H   0  0  0  0  0  0  0  0  0  0  0  0
   -4.8399   11.5827   -1.0238 H   0  0  0  0  0  0  0  0  0  0  0  0
   -6.5863   11.7772   -0.8820 H   0  0  0  0  0  0  0  0  0  0  0  0
   -4.6171   14.9796    0.7753 H   0  0  0  0  0  0  0  0  0  0  0  0
  1  2  2  0
  2  3  1  0
  3  4  1  0
  4  5  1  0
  5  6  1  0
  6  7  2  0
  7  8  1  0
  8  9  2  0
  9 10  1  0
 10 11  1  0
 11 12  1  0
 12 13  1  0
 13 14  1  0
 14 15  1  0
 15 16  1  0
 16 17  1  0
 17 18  1  0
 18 19  1  0
 19 20  1  0
 20 21  1  0
 21 22  1  0
 22 23  1  0
 23 24  1  0
 24 25  1  0
 25 26  1  0
 24 27  1  0
 27 28  1  0
 28 29  1  0
 26 29  1  0
 29 30  1  0
 30 31  2  0
 31 32  1  0
 30 33  1  0
 33 34  2  0
 34 35  1  0
 32 35  2  0
 35 36  1  0
 36 37  1  0
 37 38  1  0
 38 39  1  0
 39 40  1  0
 40 41  1  0
 39 42  2  0
 38 43  1  0
 43 44  1  0
 43 45  1  0
 45 46  1  0
 46 47  2  0
 47 48  1  0
 48 49  1  0
 49 50  1  0
 48 51  2  0
 51 52  1  0
 52 53  1  0
 51 54  1  0
 54 55  2  0
 46 55  1  0
 36 55  1  0
 23 56  2  0
 10 57  2  0
  6 57  1  0
  4 58  1  0
 57 58  1  0
 58 59  2  0
  5 60  2  0
  3 61  1  0
 61 62  1  0
  2 63  1  0
 62 64  1  0
 63 64  1  0
 64 65  2  0
  3 66  1  6
  7 67  1  0
  8 68  1  0
  9 69  1  0
 11 70  1  0
 12 71  1  0
 12 72  1  0
 13 73  1  0
 13 74  1  0
 15 75  1  0
 15 76  1  0
 16 77  1  0
 16 78  1  0
 18 79  1  0
 18 80  1  0
 19 81  1  0
 19 82  1  0
 21 83  1  0
 21 84  1  0
 22 85  1  0
 22 86  1  0
 25 87  1  0
 25 88  1  0
 26 89  1  0
 26 90  1  0
 27 91  1  0
 27 92  1  0
 28 93  1  0
 28 94  1  0
 31 95  1  0
 32 96  1  0
 33 97  1  0
 34 98  1  0
 40 99  1  0
 41100  1  0
 41101  1  0
 41102  1  0
 43103  1  6
 44104  1  0
 44105  1  0
 44106  1  0
 45107  1  0
 45108  1  0
 47109  1  0
 50110  1  0
 50111  1  0
 50112  1  0
 53113  1  0
 53114  1  0
 53115  1  0
 54116  1  0
 61117  1  0
 61118  1  0
 62119  1  0
 62120  1  0
 63121  1  0
M  END
>  <ANI_energy(hartree)>  (1) 
-3051.585560963048

>  <ANI_energy(kcal/mol)>  (1) 
-1914897.4037743614

$$$$
