
     RDKit          3D

121127  0  0  1  0  0  0  0  0999 V2000
   -3.5090   13.4456    2.2728 O   0  0  0  0  0  0  0  0  0  0  0  0
   -4.0388   12.9406    1.2987 C   0  0  0  0  0  0  0  0  0  0  0  0
   -4.2737   11.4439    1.1179 C   0  0  1  0  0  0  0  0  0  0  0  0
   -4.3527   10.7525    2.4054 N   0  0  0  0  0  0  0  0  0  0  0  0
   -5.3117   11.0297    3.3947 C   0  0  0  0  0  0  0  0  0  0  0  0
   -5.0802   10.0114    4.4524 C   0  0  0  0  0  0  0  0  0  0  0  0
   -5.7311    9.8349    5.6642 C   0  0  0  0  0  0  0  0  0  0  0  0
   -5.3069    8.7719    6.4615 C   0  0  0  0  0  0  0  0  0  0  0  0
   -4.2673    7.9199    6.0627 C   0  0  0  0  0  0  0  0  0  0  0  0
   -3.6045    8.1094    4.8375 C   0  0  0  0  0  0  0  0  0  0  0  0
   -2.5679    7.3351    4.4129 N   0  0  0  0  0  0  0  0  0  0  0  0
   -2.1443    6.1263    5.0845 C   0  0  0  0  0  0  0  0  0  0  0  0
   -0.9047    5.5852    4.3983 C   0  0  0  0  0  0  0  0  0  0  0  0
   -1.2155    5.4080    3.0125 O   0  0  0  0  0  0  0  0  0  0  0  0
   -0.0822    5.4375    2.1416 C   0  0  0  0  0  0  0  0  0  0  0  0
    0.8504    4.2511    2.2749 C   0  0  0  0  0  0  0  0  0  0  0  0
    1.6127    4.3911    3.4757 O   0  0  0  0  0  0  0  0  0  0  0  0
    2.1045    3.1551    4.0033 C   0  0  0  0  0  0  0  0  0  0  0  0
    3.2016    2.5060    3.1827 C   0  0  0  0  0  0  0  0  0  0  0  0
    2.6449    1.8792    2.0281 O   0  0  0  0  0  0  0  0  0  0  0  0
    3.6446    1.2907    1.1929 C   0  0  0  0  0  0  0  0  0  0  0  0
    2.9266    0.5452    0.0796 C   0  0  0  0  0  0  0  0  0  0  0  0
    3.9069   -0.1465   -0.8617 C   0  0  0  0  0  0  0  0  0  0  0  0
    3.3874   -0.8247   -1.9262 N   0  0  0  0  0  0  0  0  0  0  0  0
    1.9848   -1.1969   -2.1099 C   0  0  0  0  0  0  0  0  0  0  0  0
    1.7919   -2.6827   -1.8237 C   0  0  0  0  0  0  0  0  0  0  0  0
    4.2647   -1.6119   -2.7938 C   0  0  0  0  0  0  0  0  0  0  0  0
    4.0918   -3.0999   -2.5086 C   0  0  0  0  0  0  0  0  0  0  0  0
    2.6844   -3.4894   -2.6811 N   0  0  0  0  0  0  0  0  0  0  0  0
    2.4011   -4.8583   -2.7768 C   0  0  0  0  0  0  0  0  0  0  0  0
    1.1003   -5.2705   -3.1271 C   0  0  0  0  0  0  0  0  0  0  0  0
    0.7969   -6.6125   -3.2925 C   0  0  0  0  0  0  0  0  0  0  0  0
    3.3814   -5.8516   -2.5852 C   0  0  0  0  0  0  0  0  0  0  0  0
    3.0614   -7.1925   -2.7266 C   0  0  0  0  0  0  0  0  0  0  0  0
    1.7670   -7.6041   -3.0789 C   0  0  0  0  0  0  0  0  0  0  0  0
    1.4297   -9.0441   -3.2050 C   0  0  0  0  0  0  0  0  0  0  0  0
    1.1499   -9.5094   -4.4067 N   0  0  0  0  0  0  0  0  0  0  0  0
    2.3302  -10.0759   -4.8808 N   0  0  0  0  0  0  0  0  0  0  0  0
    2.5120   -9.9011   -6.2705 C   0  0  0  0  0  0  0  0  0  0  0  0
    1.5967   -9.0898   -6.8326 N   0  0  0  0  0  0  0  0  0  0  0  0
    1.6527   -8.7794   -8.2508 C   0  0  0  0  0  0  0  0  0  0  0  0
    3.4323  -10.4494   -6.8765 O   0  0  0  0  0  0  0  0  0  0  0  0
    2.8374  -11.3082   -4.2540 C   0  0  1  0  0  0  0  0  0  0  0  0
    4.1276  -11.0795   -3.4667 C   0  0  0  0  0  0  0  0  0  0  0  0
    1.7091  -11.9620   -3.4394 C   0  0  0  0  0  0  0  0  0  0  0  0
    1.4343  -11.3019   -2.1224 C   0  0  0  0  0  0  0  0  0  0  0  0
    1.3055  -12.0686   -0.9640 C   0  0  0  0  0  0  0  0  0  0  0  0
    1.1265  -11.4817    0.2885 C   0  0  0  0  0  0  0  0  0  0  0  0
    0.9598  -12.1849    1.4344 O   0  0  0  0  0  0  0  0  0  0  0  0
    0.9562  -13.6123    1.3393 C   0  0  0  0  0  0  0  0  0  0  0  0
    1.0955  -10.0718    0.4033 C   0  0  0  0  0  0  0  0  0  0  0  0
    0.8709   -9.4067    1.5764 O   0  0  0  0  0  0  0  0  0  0  0  0
    1.6481   -9.7635    2.7439 C   0  0  0  0  0  0  0  0  0  0  0  0
    1.1914   -9.3091   -0.7452 C   0  0  0  0  0  0  0  0  0  0  0  0
    1.3625   -9.8906   -2.0181 C   0  0  0  0  0  0  0  0  0  0  0  0
    5.1216   -0.0808   -0.6629 O   0  0  0  0  0  0  0  0  0  0  0  0
   -4.0466    9.1814    4.0369 C   0  0  0  0  0  0  0  0  0  0  0  0
   -3.5801    9.6229    2.7086 C   0  0  0  0  0  0  0  0  0  0  0  0
   -2.7174    9.1408    1.9844 O   0  0  0  0  0  0  0  0  0  0  0  0
   -6.1377   11.9204    3.3488 O   0  0  0  0  0  0  0  0  0  0  0  0
   -5.4797   11.1603    0.2172 C   0  0  0  0  0  0  0  0  0  0  0  0
   -5.2728   11.8497   -1.1251 C   0  0  0  0  0  0  0  0  0  0  0  0
   -4.4175   13.7200    0.2154 N   0  0  0  0  0  0  0  0  0  0  0  0
   -4.9924   13.3218   -0.9868 C   0  0  0  0  0  0  0  0  0  0  0  0
   -5.2142   14.1408   -1.8658 O   0  0  0  0  0  0  0  0  0  0  0  0
   -3.3740   11.0446    0.6303 H   0  0  0  0  0  0  0  0  0  0  0  0
   -6.5355   10.4984    5.9652 H   0  0  0  0  0  0  0  0  0  0  0  0
   -5.7883    8.5931    7.4194 H   0  0  0  0  0  0  0  0  0  0  0  0
   -3.9780    7.0969    6.7126 H   0  0  0  0  0  0  0  0  0  0  0  0
   -2.3162    7.4538    3.4371 H   0  0  0  0  0  0  0  0  0  0  0  0
   -1.9101    6.3423    6.1362 H   0  0  0  0  0  0  0  0  0  0  0  0
   -2.9349    5.3553    5.0879 H   0  0  0  0  0  0  0  0  0  0  0  0
   -0.0779    6.3036    4.5075 H   0  0  0  0  0  0  0  0  0  0  0  0
   -0.6054    4.6326    4.8547 H   0  0  0  0  0  0  0  0  0  0  0  0
   -0.4960    5.4419    1.1255 H   0  0  0  0  0  0  0  0  0  0  0  0
    0.4848    6.3748    2.2758 H   0  0  0  0  0  0  0  0  0  0  0  0
    0.2663    3.3166    2.2914 H   0  0  0  0  0  0  0  0  0  0  0  0
    1.5263    4.2269    1.4076 H   0  0  0  0  0  0  0  0  0  0  0  0
    2.5180    3.4038    4.9884 H   0  0  0  0  0  0  0  0  0  0  0  0
    1.2788    2.4391    4.1570 H   0  0  0  0  0  0  0  0  0  0  0  0
    3.9484    3.2662    2.8939 H   0  0  0  0  0  0  0  0  0  0  0  0
    3.7015    1.7514    3.8123 H   0  0  0  0  0  0  0  0  0  0  0  0
    4.3025    2.0673    0.7711 H   0  0  0  0  0  0  0  0  0  0  0  0
    4.2758    0.5956    1.7680 H   0  0  0  0  0  0  0  0  0  0  0  0
    2.2550   -0.2012    0.5257 H   0  0  0  0  0  0  0  0  0  0  0  0
    2.2965    1.2446   -0.4871 H   0  0  0  0  0  0  0  0  0  0  0  0
    1.3285   -0.5932   -1.4787 H   0  0  0  0  0  0  0  0  0  0  0  0
    1.7190   -1.0050   -3.1582 H   0  0  0  0  0  0  0  0  0  0  0  0
    1.9955   -2.8887   -0.7557 H   0  0  0  0  0  0  0  0  0  0  0  0
    0.7485   -2.9456   -2.0101 H   0  0  0  0  0  0  0  0  0  0  0  0
    3.9854   -1.4196   -3.8391 H   0  0  0  0  0  0  0  0  0  0  0  0
    5.3019   -1.3044   -2.6377 H   0  0  0  0  0  0  0  0  0  0  0  0
    4.7147   -3.6598   -3.2153 H   0  0  0  0  0  0  0  0  0  0  0  0
    4.4398   -3.3213   -1.4828 H   0  0  0  0  0  0  0  0  0  0  0  0
    0.3277   -4.5248   -3.2980 H   0  0  0  0  0  0  0  0  0  0  0  0
   -0.2208   -6.8926   -3.5585 H   0  0  0  0  0  0  0  0  0  0  0  0
    4.3926   -5.5746   -2.3070 H   0  0  0  0  0  0  0  0  0  0  0  0
    3.8367   -7.9454   -2.5866 H   0  0  0  0  0  0  0  0  0  0  0  0
    0.8667   -8.7283   -6.2348 H   0  0  0  0  0  0  0  0  0  0  0  0
    0.8132   -8.1255   -8.4965 H   0  0  0  0  0  0  0  0  0  0  0  0
    1.5837   -9.6894   -8.8582 H   0  0  0  0  0  0  0  0  0  0  0  0
    2.5887   -8.2686   -8.5052 H   0  0  0  0  0  0  0  0  0  0  0  0
    3.0884  -11.9825   -5.0876 H   0  0  0  0  0  0  0  0  0  0  0  0
    4.8964  -10.6517   -4.1187 H   0  0  0  0  0  0  0  0  0  0  0  0
    4.4856  -12.0469   -3.0955 H   0  0  0  0  0  0  0  0  0  0  0  0
    3.9839  -10.4202   -2.6025 H   0  0  0  0  0  0  0  0  0  0  0  0
    0.8062  -11.9536   -4.0649 H   0  0  0  0  0  0  0  0  0  0  0  0
    1.9774  -13.0076   -3.2589 H   0  0  0  0  0  0  0  0  0  0  0  0
    1.3608  -13.1501   -1.0426 H   0  0  0  0  0  0  0  0  0  0  0  0
    0.7981  -13.9778    2.3567 H   0  0  0  0  0  0  0  0  0  0  0  0
    1.9176  -13.9846    0.9633 H   0  0  0  0  0  0  0  0  0  0  0  0
    0.1414  -13.9650    0.6935 H   0  0  0  0  0  0  0  0  0  0  0  0
    2.6753  -10.0301    2.4640 H   0  0  0  0  0  0  0  0  0  0  0  0
    1.1790  -10.5882    3.2905 H   0  0  0  0  0  0  0  0  0  0  0  0
    1.6618   -8.8656    3.3689 H   0  0  0  0  0  0  0  0  0  0  0  0
    1.1401   -8.2231   -0.6670 H   0  0  0  0  0  0  0  0  0  0  0  0
   -5.5592   10.0770    0.0811 H   0  0  0  0  0  0  0  0  0  0  0  0
   -6.3984   11.5122    0.7000 H   0  0  0  0  0  0  0  0  0  0  0  0
   -4.4142   11.4081   -1.6520 H   0  0  0  0  0  0  0  0  0  0  0  0
   -6.1425   11.7311   -1.7774 H   0  0  0  0  0  0  0  0  0  0  0  0
   -4.2288   14.7152    0.3053 H   0  0  0  0  0  0  0  0  0  0  0  0
  1  2  2  0
  2  3  1  0
  3  4  1  0
  4  5  1  0
  5  6  1  0
  6  7  1  0
  7  8  2  0
  8  9  1  0
  9 10  2  0
 10 11  1  0
 11 12  1  0
 12 13  1  0
 13 14  1  0
 14 15  1  0
 15 16  1  0
 16 17  1  0
 17 18  1  0
 18 19  1  0
 19 20  1  0
 20 21  1  0
 21 22  1  0
 22 23  1  0
 23 24  1  0
 24 25  1  0
 25 26  1  0
 24 27  1  0
 27 28  1  0
 28 29  1  0
 26 29  1  0
 29 30  1  0
 30 31  2  0
 31 32  1  0
 30 33  1  0
 33 34  2  0
 34 35  1  0
 32 35  2  0
 35 36  1  0
 36 37  1  0
 37 38  1  0
 38 39  1  0
 39 40  1  0
 40 41  1  0
 39 42  2  0
 38 43  1  0
 43 44  1  0
 43 45  1  0
 45 46  1  0
 46 47  2  0
 47 48  1  0
 48 49  1  0
 49 50  1  0
 48 51  2  0
 51 52  1  0
 52 53  1  0
 51 54  1  0
 54 55  2  0
 46 55  1  0
 36 55  1  0
 23 56  2  0
  6 57  2  0
 10 57  1  0
 57 58  1  0
  4 58  1  0
 58 59  2  0
  5 60  2  0
  3 61  1  0
 61 62  1  0
  2 63  1  0
 62 64  1  0
 63 64  1  0
 64 65  2  0
  3 66  1  6
  7 67  1  0
  8 68  1  0
  9 69  1  0
 11 70  1  0
 12 71  1  0
 12 72  1  0
 13 73  1  0
 13 74  1  0
 15 75  1  0
 15 76  1  0
 16 77  1  0
 16 78  1  0
 18 79  1  0
 18 80  1  0
 19 81  1  0
 19 82  1  0
 21 83  1  0
 21 84  1  0
 22 85  1  0
 22 86  1  0
 25 87  1  0
 25 88  1  0
 26 89  1  0
 26 90  1  0
 27 91  1  0
 27 92  1  0
 28 93  1  0
 28 94  1  0
 31 95  1  0
 32 96  1  0
 33 97  1  0
 34 98  1  0
 40 99  1  0
 41100  1  0
 41101  1  0
 41102  1  0
 43103  1  6
 44104  1  0
 44105  1  0
 44106  1  0
 45107  1  0
 45108  1  0
 47109  1  0
 50110  1  0
 50111  1  0
 50112  1  0
 53113  1  0
 53114  1  0
 53115  1  0
 54116  1  0
 61117  1  0
 61118  1  0
 62119  1  0
 62120  1  0
 63121  1  0
M  END
>  <ANI_energy(hartree)>  (1) 
-3051.5878736232653

>  <ANI_energy(kcal/mol)>  (1) 
-1914898.8549894616

$$$$
