
     RDKit          3D

121127  0  0  1  0  0  0  0  0999 V2000
   -8.3702   14.6526   -2.1220 O   0  0  0  0  0  0  0  0  0  0  0  0
   -9.3025   14.3281   -2.8361 C   0  0  0  0  0  0  0  0  0  0  0  0
   -9.6368   12.8930   -3.2320 C   0  0  1  0  0  0  0  0  0  0  0  0
   -9.1085   11.9295   -2.2661 N   0  0  0  0  0  0  0  0  0  0  0  0
   -9.4801   11.8795   -0.9130 C   0  0  0  0  0  0  0  0  0  0  0  0
   -8.7930   10.6786   -0.3683 C   0  0  0  0  0  0  0  0  0  0  0  0
   -8.8045   10.1731    0.9235 C   0  0  0  0  0  0  0  0  0  0  0  0
   -8.0752    9.0058    1.1492 C   0  0  0  0  0  0  0  0  0  0  0  0
   -7.3621    8.3710    0.1239 C   0  0  0  0  0  0  0  0  0  0  0  0
   -7.3477    8.8861   -1.1883 C   0  0  0  0  0  0  0  0  0  0  0  0
   -6.6707    8.2940   -2.2104 N   0  0  0  0  0  0  0  0  0  0  0  0
   -5.9295    7.0538   -2.0825 C   0  0  0  0  0  0  0  0  0  0  0  0
   -4.5404    7.2125   -1.4571 C   0  0  0  0  0  0  0  0  0  0  0  0
   -3.9713    5.9072   -1.3826 O   0  0  0  0  0  0  0  0  0  0  0  0
   -2.6762    5.8840   -0.7890 C   0  0  0  0  0  0  0  0  0  0  0  0
   -2.1714    4.4598   -0.9289 C   0  0  0  0  0  0  0  0  0  0  0  0
   -0.8798    4.3801   -0.3303 O   0  0  0  0  0  0  0  0  0  0  0  0
   -0.3052    3.0879   -0.5097 C   0  0  0  0  0  0  0  0  0  0  0  0
    1.0158    3.0384    0.2365 C   0  0  0  0  0  0  0  0  0  0  0  0
    1.5483    1.7398   -0.0007 O   0  0  0  0  0  0  0  0  0  0  0  0
    2.7690    1.4739    0.6891 C   0  0  0  0  0  0  0  0  0  0  0  0
    3.2152    0.0941    0.2322 C   0  0  0  0  0  0  0  0  0  0  0  0
    4.5079   -0.3727    0.8854 C   0  0  0  0  0  0  0  0  0  0  0  0
    5.0124   -1.5629    0.4583 N   0  0  0  0  0  0  0  0  0  0  0  0
    4.4362   -2.4358   -0.5628 C   0  0  0  0  0  0  0  0  0  0  0  0
    4.1648   -3.8118    0.0286 C   0  0  0  0  0  0  0  0  0  0  0  0
    6.2420   -2.1152    1.0280 C   0  0  0  0  0  0  0  0  0  0  0  0
    5.9959   -3.5111    1.5915 C   0  0  0  0  0  0  0  0  0  0  0  0
    5.4110   -4.3872    0.5652 N   0  0  0  0  0  0  0  0  0  0  0  0
    5.4539   -5.7683    0.7602 C   0  0  0  0  0  0  0  0  0  0  0  0
    4.9869   -6.6271   -0.2562 C   0  0  0  0  0  0  0  0  0  0  0  0
    5.0620   -8.0004   -0.1188 C   0  0  0  0  0  0  0  0  0  0  0  0
    5.9981   -6.3603    1.9203 C   0  0  0  0  0  0  0  0  0  0  0  0
    6.0652   -7.7357    2.0514 C   0  0  0  0  0  0  0  0  0  0  0  0
    5.5874   -8.5944    1.0452 C   0  0  0  0  0  0  0  0  0  0  0  0
    5.6888  -10.0600    1.1178 C   0  0  1  0  0  0  0  0  0  0  0  0
    5.7433  -10.7069   -0.0421 N   0  0  0  0  0  0  0  0  0  0  0  0
    7.0784  -10.7158   -0.4226 N   0  0  0  0  0  0  0  0  0  0  0  0
    7.2708  -10.7219   -1.8177 C   0  0  0  0  0  0  0  0  0  0  0  0
    6.1169  -10.5912   -2.5109 N   0  0  0  0  0  0  0  0  0  0  0  0
    6.1141  -10.6738   -3.9628 C   0  0  0  0  0  0  0  0  0  0  0  0
    8.3897  -10.8141   -2.3211 O   0  0  0  0  0  0  0  0  0  0  0  0
    8.1035  -11.3068    0.4575 C   0  0  1  0  0  0  0  0  0  0  0  0
    8.8942  -10.2550    1.2378 C   0  0  0  0  0  0  0  0  0  0  0  0
    7.4566  -12.3953    1.3321 C   0  0  0  0  0  0  0  0  0  0  0  0
    6.6504  -11.9017    2.5001 C   0  0  0  0  0  0  0  0  0  0  0  0
    6.7695  -12.5342    3.7393 C   0  0  0  0  0  0  0  0  0  0  0  0
    6.0529  -12.1101    4.8489 C   0  0  0  0  0  0  0  0  0  0  0  0
    6.1354  -12.6800    6.0776 O   0  0  0  0  0  0  0  0  0  0  0  0
    7.0378  -13.7841    6.2200 C   0  0  0  0  0  0  0  0  0  0  0  0
    5.1598  -11.0115    4.7299 C   0  0  0  0  0  0  0  0  0  0  0  0
    4.4786  -10.6607    5.8496 O   0  0  0  0  0  0  0  0  0  0  0  0
    3.5404   -9.5851    5.7252 C   0  0  0  0  0  0  0  0  0  0  0  0
    5.0460  -10.3692    3.5108 C   0  0  0  0  0  0  0  0  0  0  0  0
    5.7943  -10.7803    2.3881 C   0  0  0  0  0  0  0  0  0  0  0  0
    5.0575    0.2992    1.7623 O   0  0  0  0  0  0  0  0  0  0  0  0
   -8.0890   10.0722   -1.4018 C   0  0  0  0  0  0  0  0  0  0  0  0
   -8.2911   10.8537   -2.6392 C   0  0  0  0  0  0  0  0  0  0  0  0
   -7.8661   10.6542   -3.7705 O   0  0  0  0  0  0  0  0  0  0  0  0
  -10.2128   12.6694   -0.3502 O   0  0  0  0  0  0  0  0  0  0  0  0
  -11.1357   12.7149   -3.4946 C   0  0  0  0  0  0  0  0  0  0  0  0
  -11.5669   13.6868   -4.5852 C   0  0  0  0  0  0  0  0  0  0  0  0
  -10.1183   15.2887   -3.4160 N   0  0  0  0  0  0  0  0  0  0  0  0
  -11.1992   15.1124   -4.2733 C   0  0  0  0  0  0  0  0  0  0  0  0
  -11.7744   16.0804   -4.7475 O   0  0  0  0  0  0  0  0  0  0  0  0
   -9.0944   12.6929   -4.1656 H   0  0  0  0  0  0  0  0  0  0  0  0
   -9.3613   10.6715    1.7106 H   0  0  0  0  0  0  0  0  0  0  0  0
   -8.0578    8.5671    2.1435 H   0  0  0  0  0  0  0  0  0  0  0  0
   -6.8080    7.4659    0.3593 H   0  0  0  0  0  0  0  0  0  0  0  0
   -6.7084    8.7673   -3.1033 H   0  0  0  0  0  0  0  0  0  0  0  0
   -6.5031    6.3330   -1.4845 H   0  0  0  0  0  0  0  0  0  0  0  0
   -5.8088    6.6323   -3.0865 H   0  0  0  0  0  0  0  0  0  0  0  0
   -3.9080    7.8700   -2.0775 H   0  0  0  0  0  0  0  0  0  0  0  0
   -4.6115    7.6663   -0.4538 H   0  0  0  0  0  0  0  0  0  0  0  0
   -1.9928    6.5797   -1.3025 H   0  0  0  0  0  0  0  0  0  0  0  0
   -2.7236    6.1688    0.2740 H   0  0  0  0  0  0  0  0  0  0  0  0
   -2.8716    3.7685   -0.4335 H   0  0  0  0  0  0  0  0  0  0  0  0
   -2.1234    4.1910   -1.9961 H   0  0  0  0  0  0  0  0  0  0  0  0
   -0.9755    2.3064   -0.1181 H   0  0  0  0  0  0  0  0  0  0  0  0
   -0.1309    2.8847   -1.5784 H   0  0  0  0  0  0  0  0  0  0  0  0
    1.6973    3.8189   -0.1378 H   0  0  0  0  0  0  0  0  0  0  0  0
    0.8526    3.2100    1.3128 H   0  0  0  0  0  0  0  0  0  0  0  0
    3.5294    2.2313    0.4435 H   0  0  0  0  0  0  0  0  0  0  0  0
    2.6117    1.4976    1.7781 H   0  0  0  0  0  0  0  0  0  0  0  0
    2.4152   -0.6245    0.4598 H   0  0  0  0  0  0  0  0  0  0  0  0
    3.3303    0.1099   -0.8597 H   0  0  0  0  0  0  0  0  0  0  0  0
    3.5124   -2.0201   -0.9679 H   0  0  0  0  0  0  0  0  0  0  0  0
    5.1573   -2.5403   -1.3865 H   0  0  0  0  0  0  0  0  0  0  0  0
    3.4038   -3.7289    0.8281 H   0  0  0  0  0  0  0  0  0  0  0  0
    3.7467   -4.4525   -0.7486 H   0  0  0  0  0  0  0  0  0  0  0  0
    7.0056   -2.1827    0.2374 H   0  0  0  0  0  0  0  0  0  0  0  0
    6.6060   -1.4449    1.8112 H   0  0  0  0  0  0  0  0  0  0  0  0
    6.9599   -3.9166    1.9178 H   0  0  0  0  0  0  0  0  0  0  0  0
    5.3303   -3.4432    2.4716 H   0  0  0  0  0  0  0  0  0  0  0  0
    4.5868   -6.2100   -1.1755 H   0  0  0  0  0  0  0  0  0  0  0  0
    4.6763   -8.6347   -0.9127 H   0  0  0  0  0  0  0  0  0  0  0  0
    6.3536   -5.7398    2.7341 H   0  0  0  0  0  0  0  0  0  0  0  0
    6.5123   -8.1594    2.9486 H   0  0  0  0  0  0  0  0  0  0  0  0
    5.2644  -10.7674   -1.9947 H   0  0  0  0  0  0  0  0  0  0  0  0
    6.8198   -9.9487   -4.3794 H   0  0  0  0  0  0  0  0  0  0  0  0
    5.1114  -10.4273   -4.3211 H   0  0  0  0  0  0  0  0  0  0  0  0
    6.3891  -11.6727   -4.3290 H   0  0  0  0  0  0  0  0  0  0  0  0
    8.8095  -11.8012   -0.2244 H   0  0  0  0  0  0  0  0  0  0  0  0
    9.4040   -9.5754    0.5458 H   0  0  0  0  0  0  0  0  0  0  0  0
    9.6466  -10.7665    1.8478 H   0  0  0  0  0  0  0  0  0  0  0  0
    8.2630   -9.6573    1.9092 H   0  0  0  0  0  0  0  0  0  0  0  0
    6.8200  -12.9964    0.6683 H   0  0  0  0  0  0  0  0  0  0  0  0
    8.2488  -13.0493    1.7092 H   0  0  0  0  0  0  0  0  0  0  0  0
    7.4513  -13.3741    3.8302 H   0  0  0  0  0  0  0  0  0  0  0  0
    6.9760  -14.0841    7.2695 H   0  0  0  0  0  0  0  0  0  0  0  0
    8.0682  -13.4861    5.9848 H   0  0  0  0  0  0  0  0  0  0  0  0
    6.7383  -14.6245    5.5796 H   0  0  0  0  0  0  0  0  0  0  0  0
    3.0847   -9.4696    6.7119 H   0  0  0  0  0  0  0  0  0  0  0  0
    2.7632   -9.8240    4.9864 H   0  0  0  0  0  0  0  0  0  0  0  0
    4.0470   -8.6515    5.4443 H   0  0  0  0  0  0  0  0  0  0  0  0
    4.3880   -9.5124    3.3965 H   0  0  0  0  0  0  0  0  0  0  0  0
  -11.3115   11.6826   -3.8131 H   0  0  0  0  0  0  0  0  0  0  0  0
  -11.7004   12.8894   -2.5717 H   0  0  0  0  0  0  0  0  0  0  0  0
  -11.0817   13.4302   -5.5385 H   0  0  0  0  0  0  0  0  0  0  0  0
  -12.6464   13.6475   -4.7562 H   0  0  0  0  0  0  0  0  0  0  0  0
   -9.8804   16.2535   -3.2003 H   0  0  0  0  0  0  0  0  0  0  0  0
  1  2  2  0
  2  3  1  0
  3  4  1  0
  4  5  1  0
  5  6  1  0
  6  7  2  0
  7  8  1  0
  8  9  2  0
  9 10  1  0
 10 11  1  0
 11 12  1  0
 12 13  1  0
 13 14  1  0
 14 15  1  0
 15 16  1  0
 16 17  1  0
 17 18  1  0
 18 19  1  0
 19 20  1  0
 20 21  1  0
 21 22  1  0
 22 23  1  0
 23 24  1  0
 24 25  1  0
 25 26  1  0
 24 27  1  0
 27 28  1  0
 26 29  1  0
 28 29  1  0
 29 30  1  0
 30 31  2  0
 31 32  1  0
 30 33  1  0
 33 34  2  0
 34 35  1  0
 32 35  2  0
 36 35  1  6
 36 37  1  0
 37 38  1  0
 38 39  1  0
 39 40  1  0
 40 41  1  0
 39 42  2  0
 38 43  1  0
 43 44  1  0
 43 45  1  0
 45 46  1  0
 46 47  2  0
 47 48  1  0
 48 49  1  0
 49 50  1  0
 48 51  2  0
 51 52  1  0
 52 53  1  0
 51 54  1  0
 54 55  2  0
 46 55  1  0
 36 55  1  0
 23 56  2  0
 10 57  2  0
  6 57  1  0
  4 58  1  0
 57 58  1  0
 58 59  2  0
  5 60  2  0
  3 61  1  0
 61 62  1  0
  2 63  1  0
 62 64  1  0
 63 64  1  0
 64 65  2  0
  3 66  1  6
  7 67  1  0
  8 68  1  0
  9 69  1  0
 11 70  1  0
 12 71  1  0
 12 72  1  0
 13 73  1  0
 13 74  1  0
 15 75  1  0
 15 76  1  0
 16 77  1  0
 16 78  1  0
 18 79  1  0
 18 80  1  0
 19 81  1  0
 19 82  1  0
 21 83  1  0
 21 84  1  0
 22 85  1  0
 22 86  1  0
 25 87  1  0
 25 88  1  0
 26 89  1  0
 26 90  1  0
 27 91  1  0
 27 92  1  0
 28 93  1  0
 28 94  1  0
 31 95  1  0
 32 96  1  0
 33 97  1  0
 34 98  1  0
 40 99  1  0
 41100  1  0
 41101  1  0
 41102  1  0
 43103  1  6
 44104  1  0
 44105  1  0
 44106  1  0
 45107  1  0
 45108  1  0
 47109  1  0
 50110  1  0
 50111  1  0
 50112  1  0
 53113  1  0
 53114  1  0
 53115  1  0
 54116  1  0
 61117  1  0
 61118  1  0
 62119  1  0
 62120  1  0
 63121  1  0
M  END
>  <ANI_energy(hartree)>  (1) 
-3051.597998545064

>  <ANI_energy(kcal/mol)>  (1) 
-1914905.2084690146

$$$$

     RDKit          3D

121127  0  0  1  0  0  0  0  0999 V2000
   -8.9525   13.8368   -1.3638 O   0  0  0  0  0  0  0  0  0  0  0  0
   -9.6817   13.5788   -2.3051 C   0  0  0  0  0  0  0  0  0  0  0  0
   -9.5683   12.3318   -3.1777 C   0  0  1  0  0  0  0  0  0  0  0  0
   -8.9064   11.2360   -2.4696 N   0  0  0  0  0  0  0  0  0  0  0  0
   -9.3893   10.6519   -1.2881 C   0  0  0  0  0  0  0  0  0  0  0  0
   -8.4484    9.5398   -0.9953 C   0  0  0  0  0  0  0  0  0  0  0  0
   -8.4497    8.6522    0.0704 C   0  0  0  0  0  0  0  0  0  0  0  0
   -7.4358    7.6953    0.0926 C   0  0  0  0  0  0  0  0  0  0  0  0
   -6.4629    7.6270   -0.9131 C   0  0  0  0  0  0  0  0  0  0  0  0
   -6.4658    8.5244   -2.0007 C   0  0  0  0  0  0  0  0  0  0  0  0
   -5.5524    8.4684   -3.0107 N   0  0  0  0  0  0  0  0  0  0  0  0
   -4.4399    7.5360   -3.0420 C   0  0  0  0  0  0  0  0  0  0  0  0
   -3.2799    7.9163   -2.1188 C   0  0  0  0  0  0  0  0  0  0  0  0
   -2.3048    6.8815   -2.2214 O   0  0  0  0  0  0  0  0  0  0  0  0
   -1.2084    7.0660   -1.3294 C   0  0  0  0  0  0  0  0  0  0  0  0
   -0.1922    5.9719   -1.5699 C   0  0  0  0  0  0  0  0  0  0  0  0
   -0.7674    4.7203   -1.2020 O   0  0  0  0  0  0  0  0  0  0  0  0
    0.1255    3.6267   -1.3818 C   0  0  0  0  0  0  0  0  0  0  0  0
   -0.6421    2.3770   -0.9594 C   0  0  0  0  0  0  0  0  0  0  0  0
    0.1449    1.1931   -1.1055 O   0  0  0  0  0  0  0  0  0  0  0  0
    0.9922    0.9383    0.0188 C   0  0  0  0  0  0  0  0  0  0  0  0
    1.8791   -0.2414   -0.3371 C   0  0  0  0  0  0  0  0  0  0  0  0
    2.8535   -0.5851    0.7832 C   0  0  0  0  0  0  0  0  0  0  0  0
    3.8174   -1.5089    0.5101 N   0  0  0  0  0  0  0  0  0  0  0  0
    3.8892   -2.3745   -0.6649 C   0  0  0  0  0  0  0  0  0  0  0  0
    3.6613   -3.8330   -0.2751 C   0  0  0  0  0  0  0  0  0  0  0  0
    4.7748   -1.9092    1.5414 C   0  0  0  0  0  0  0  0  0  0  0  0
    4.5189   -3.3528    1.9506 C   0  0  0  0  0  0  0  0  0  0  0  0
    4.6093   -4.2371    0.7739 N   0  0  0  0  0  0  0  0  0  0  0  0
    4.7940   -5.6012    1.0089 C   0  0  0  0  0  0  0  0  0  0  0  0
    4.0620   -6.5993    0.3338 C   0  0  0  0  0  0  0  0  0  0  0  0
    4.3115   -7.9421    0.5694 C   0  0  0  0  0  0  0  0  0  0  0  0
    5.7871   -6.0170    1.9217 C   0  0  0  0  0  0  0  0  0  0  0  0
    6.0245   -7.3558    2.1543 C   0  0  0  0  0  0  0  0  0  0  0  0
    5.2816   -8.3551    1.5003 C   0  0  0  0  0  0  0  0  0  0  0  0
    5.5322   -9.7923    1.6936 C   0  0  0  0  0  0  0  0  0  0  0  0
    5.2817  -10.5811    0.6531 N   0  0  0  0  0  0  0  0  0  0  0  0
    6.4423  -10.6050   -0.1102 N   0  0  0  0  0  0  0  0  0  0  0  0
    6.2110  -10.7836   -1.4883 C   0  0  0  0  0  0  0  0  0  0  0  0
    4.8986  -10.7951   -1.8112 N   0  0  0  0  0  0  0  0  0  0  0  0
    4.4861  -11.0586   -3.1808 C   0  0  0  0  0  0  0  0  0  0  0  0
    7.1340  -10.8920   -2.2945 O   0  0  0  0  0  0  0  0  0  0  0  0
    7.7173  -11.0633    0.4741 C   0  0  1  0  0  0  0  0  0  0  0  0
    8.6507   -9.9075    0.8381 C   0  0  0  0  0  0  0  0  0  0  0  0
    7.4259  -12.0404    1.6259 C   0  0  0  0  0  0  0  0  0  0  0  0
    6.9767  -11.4198    2.9182 C   0  0  0  0  0  0  0  0  0  0  0  0
    7.4744  -11.9095    4.1275 C   0  0  0  0  0  0  0  0  0  0  0  0
    7.0906  -11.3739    5.3478 C   0  0  0  0  0  0  0  0  0  0  0  0
    7.5419  -11.8081    6.5518 O   0  0  0  0  0  0  0  0  0  0  0  0
    8.4724  -12.8979    6.5415 C   0  0  0  0  0  0  0  0  0  0  0  0
    6.1628  -10.2977    5.3810 C   0  0  0  0  0  0  0  0  0  0  0  0
    5.8225   -9.8335    6.6102 O   0  0  0  0  0  0  0  0  0  0  0  0
    4.8486   -8.7840    6.6602 C   0  0  0  0  0  0  0  0  0  0  0  0
    5.6766   -9.7942    4.1886 C   0  0  0  0  0  0  0  0  0  0  0  0
    6.0702  -10.3333    2.9442 C   0  0  0  0  0  0  0  0  0  0  0  0
    2.7672   -0.0407    1.8864 O   0  0  0  0  0  0  0  0  0  0  0  0
   -7.4936    9.4967   -2.0050 C   0  0  0  0  0  0  0  0  0  0  0  0
   -7.7781   10.5753   -2.9752 C   0  0  0  0  0  0  0  0  0  0  0  0
   -7.1937   10.8749   -4.0089 O   0  0  0  0  0  0  0  0  0  0  0  0
  -10.3719   11.0125   -0.6697 O   0  0  0  0  0  0  0  0  0  0  0  0
  -10.9252   11.9281   -3.7626 C   0  0  0  0  0  0  0  0  0  0  0  0
  -11.4900   13.0951   -4.5620 C   0  0  0  0  0  0  0  0  0  0  0  0
  -10.6645   14.4728   -2.7048 N   0  0  0  0  0  0  0  0  0  0  0  0
  -11.5607   14.3683   -3.7630 C   0  0  0  0  0  0  0  0  0  0  0  0
  -12.3258   15.2865   -4.0165 O   0  0  0  0  0  0  0  0  0  0  0  0
   -8.8948   12.5906   -4.0057 H   0  0  0  0  0  0  0  0  0  0  0  0
   -9.2100    8.7106    0.8426 H   0  0  0  0  0  0  0  0  0  0  0  0
   -7.3940    6.9767    0.9065 H   0  0  0  0  0  0  0  0  0  0  0  0
   -5.6905    6.8659   -0.8360 H   0  0  0  0  0  0  0  0  0  0  0  0
   -5.5997    9.2086   -3.6982 H   0  0  0  0  0  0  0  0  0  0  0  0
   -4.7929    6.5314   -2.7756 H   0  0  0  0  0  0  0  0  0  0  0  0
   -4.0687    7.4953   -4.0723 H   0  0  0  0  0  0  0  0  0  0  0  0
   -2.8462    8.8844   -2.4230 H   0  0  0  0  0  0  0  0  0  0  0  0
   -3.6328    8.0204   -1.0787 H   0  0  0  0  0  0  0  0  0  0  0  0
   -0.7315    8.0451   -1.4998 H   0  0  0  0  0  0  0  0  0  0  0  0
   -1.5491    7.0254   -0.2808 H   0  0  0  0  0  0  0  0  0  0  0  0
    0.1040    5.9666   -2.6329 H   0  0  0  0  0  0  0  0  0  0  0  0
    0.7041    6.1757   -0.9620 H   0  0  0  0  0  0  0  0  0  0  0  0
    0.4367    3.5409   -2.4369 H   0  0  0  0  0  0  0  0  0  0  0  0
    1.0336    3.7601   -0.7684 H   0  0  0  0  0  0  0  0  0  0  0  0
   -1.0020    2.4935    0.0760 H   0  0  0  0  0  0  0  0  0  0  0  0
   -1.5192    2.2615   -1.6096 H   0  0  0  0  0  0  0  0  0  0  0  0
    1.6096    1.8181    0.2557 H   0  0  0  0  0  0  0  0  0  0  0  0
    0.3885    0.7116    0.9104 H   0  0  0  0  0  0  0  0  0  0  0  0
    1.2455   -1.1160   -0.5469 H   0  0  0  0  0  0  0  0  0  0  0  0
    2.4312   -0.0161   -1.2593 H   0  0  0  0  0  0  0  0  0  0  0  0
    3.1640   -2.0761   -1.4246 H   0  0  0  0  0  0  0  0  0  0  0  0
    4.8952   -2.2840   -1.0981 H   0  0  0  0  0  0  0  0  0  0  0  0
    2.6181   -3.9672    0.0664 H   0  0  0  0  0  0  0  0  0  0  0  0
    3.8151   -4.4479   -1.1676 H   0  0  0  0  0  0  0  0  0  0  0  0
    5.7908   -1.8292    1.1288 H   0  0  0  0  0  0  0  0  0  0  0  0
    4.6811   -1.2376    2.3985 H   0  0  0  0  0  0  0  0  0  0  0  0
    5.2541   -3.6428    2.7043 H   0  0  0  0  0  0  0  0  0  0  0  0
    3.5204   -3.4335    2.4206 H   0  0  0  0  0  0  0  0  0  0  0  0
    3.2812   -6.3267   -0.3680 H   0  0  0  0  0  0  0  0  0  0  0  0
    3.7339   -8.6960    0.0392 H   0  0  0  0  0  0  0  0  0  0  0  0
    6.3910   -5.2744    2.4326 H   0  0  0  0  0  0  0  0  0  0  0  0
    6.7963   -7.6380    2.8672 H   0  0  0  0  0  0  0  0  0  0  0  0
    4.2488  -10.9407   -1.0495 H   0  0  0  0  0  0  0  0  0  0  0  0
    4.8148  -12.0457   -3.5328 H   0  0  0  0  0  0  0  0  0  0  0  0
    4.9020  -10.3005   -3.8521 H   0  0  0  0  0  0  0  0  0  0  0  0
    3.3960  -11.0078   -3.2307 H   0  0  0  0  0  0  0  0  0  0  0  0
    8.2091  -11.6335   -0.3268 H   0  0  0  0  0  0  0  0  0  0  0  0
    8.9367   -9.3522   -0.0624 H   0  0  0  0  0  0  0  0  0  0  0  0
    9.5568  -10.3200    1.2949 H   0  0  0  0  0  0  0  0  0  0  0  0
    8.1982   -9.2056    1.5507 H   0  0  0  0  0  0  0  0  0  0  0  0
    6.6580  -12.7371    1.2613 H   0  0  0  0  0  0  0  0  0  0  0  0
    8.3309  -12.6244    1.8198 H   0  0  0  0  0  0  0  0  0  0  0  0
    8.1856  -12.7294    4.1016 H   0  0  0  0  0  0  0  0  0  0  0  0
    8.7097  -13.0945    7.5905 H   0  0  0  0  0  0  0  0  0  0  0  0
    9.3906  -12.6299    6.0020 H   0  0  0  0  0  0  0  0  0  0  0  0
    8.0256  -13.7955    6.0938 H   0  0  0  0  0  0  0  0  0  0  0  0
    4.6919   -8.5732    7.7213 H   0  0  0  0  0  0  0  0  0  0  0  0
    3.9010   -9.1038    6.2060 H   0  0  0  0  0  0  0  0  0  0  0  0
    5.2173   -7.8795    6.1569 H   0  0  0  0  0  0  0  0  0  0  0  0
    4.9827   -8.9582    4.1851 H   0  0  0  0  0  0  0  0  0  0  0  0
  -10.7773   11.0593   -4.4112 H   0  0  0  0  0  0  0  0  0  0  0  0
  -11.6084   11.6397   -2.9557 H   0  0  0  0  0  0  0  0  0  0  0  0
  -10.8570   13.2994   -5.4382 H   0  0  0  0  0  0  0  0  0  0  0  0
  -12.4936   12.8772   -4.9376 H   0  0  0  0  0  0  0  0  0  0  0  0
  -10.7232   15.3303   -2.1615 H   0  0  0  0  0  0  0  0  0  0  0  0
  1  2  2  0
  2  3  1  0
  3  4  1  0
  4  5  1  0
  5  6  1  0
  6  7  2  0
  7  8  1  0
  8  9  2  0
  9 10  1  0
 10 11  1  0
 11 12  1  0
 12 13  1  0
 13 14  1  0
 14 15  1  0
 15 16  1  0
 16 17  1  0
 17 18  1  0
 18 19  1  0
 19 20  1  0
 20 21  1  0
 21 22  1  0
 22 23  1  0
 23 24  1  0
 24 25  1  0
 25 26  1  0
 24 27  1  0
 27 28  1  0
 26 29  1  0
 28 29  1  0
 29 30  1  0
 30 31  2  0
 31 32  1  0
 30 33  1  0
 33 34  2  0
 32 35  2  0
 34 35  1  0
 35 36  1  0
 36 37  1  0
 37 38  1  0
 38 39  1  0
 39 40  1  0
 40 41  1  0
 39 42  2  0
 38 43  1  0
 43 44  1  0
 43 45  1  0
 45 46  1  0
 46 47  2  0
 47 48  1  0
 48 49  1  0
 49 50  1  0
 48 51  2  0
 51 52  1  0
 52 53  1  0
 51 54  1  0
 54 55  2  0
 46 55  1  0
 36 55  1  0
 23 56  2  0
 10 57  2  0
  6 57  1  0
  4 58  1  0
 57 58  1  0
 58 59  2  0
  5 60  2  0
  3 61  1  0
 61 62  1  0
  2 63  1  0
 62 64  1  0
 63 64  1  0
 64 65  2  0
  3 66  1  6
  7 67  1  0
  8 68  1  0
  9 69  1  0
 11 70  1  0
 12 71  1  0
 12 72  1  0
 13 73  1  0
 13 74  1  0
 15 75  1  0
 15 76  1  0
 16 77  1  0
 16 78  1  0
 18 79  1  0
 18 80  1  0
 19 81  1  0
 19 82  1  0
 21 83  1  0
 21 84  1  0
 22 85  1  0
 22 86  1  0
 25 87  1  0
 25 88  1  0
 26 89  1  0
 26 90  1  0
 27 91  1  0
 27 92  1  0
 28 93  1  0
 28 94  1  0
 31 95  1  0
 32 96  1  0
 33 97  1  0
 34 98  1  0
 40 99  1  0
 41100  1  0
 41101  1  0
 41102  1  0
 43103  1  6
 44104  1  0
 44105  1  0
 44106  1  0
 45107  1  0
 45108  1  0
 47109  1  0
 50110  1  0
 50111  1  0
 50112  1  0
 53113  1  0
 53114  1  0
 53115  1  0
 54116  1  0
 61117  1  0
 61118  1  0
 62119  1  0
 62120  1  0
 63121  1  0
M  END
>  <ANI_energy(hartree)>  (1) 
-3051.597282097234

>  <ANI_energy(kcal/mol)>  (1) 
-1914904.7588915532

$$$$

     RDKit          3D

121127  0  0  1  0  0  0  0  0999 V2000
   -8.1937   14.1536   -0.5794 O   0  0  0  0  0  0  0  0  0  0  0  0
   -8.8824   14.4317   -1.5454 C   0  0  0  0  0  0  0  0  0  0  0  0
   -9.0642   13.5389   -2.7705 C   0  0  1  0  0  0  0  0  0  0  0  0
   -8.8169   12.1319   -2.4545 N   0  0  0  0  0  0  0  0  0  0  0  0
   -9.5598   11.3911   -1.5228 C   0  0  0  0  0  0  0  0  0  0  0  0
   -9.0078   10.0136   -1.5973 C   0  0  0  0  0  0  0  0  0  0  0  0
   -9.3749    8.8871   -0.8763 C   0  0  0  0  0  0  0  0  0  0  0  0
   -8.6794    7.7104   -1.1511 C   0  0  0  0  0  0  0  0  0  0  0  0
   -7.6548    7.6653   -2.1057 C   0  0  0  0  0  0  0  0  0  0  0  0
   -7.2826    8.8097   -2.8402 C   0  0  0  0  0  0  0  0  0  0  0  0
   -6.2991    8.7954   -3.7860 N   0  0  0  0  0  0  0  0  0  0  0  0
   -5.4225    7.6592   -4.0138 C   0  0  0  0  0  0  0  0  0  0  0  0
   -4.3683    7.4509   -2.9219 C   0  0  0  0  0  0  0  0  0  0  0  0
   -3.6611    6.2495   -3.2275 O   0  0  0  0  0  0  0  0  0  0  0  0
   -2.7516    5.8805   -2.1948 C   0  0  0  0  0  0  0  0  0  0  0  0
   -2.0564    4.6006   -2.6248 C   0  0  0  0  0  0  0  0  0  0  0  0
   -1.2035    4.2153   -1.5494 O   0  0  0  0  0  0  0  0  0  0  0  0
   -0.5022    2.9997   -1.8000 C   0  0  0  0  0  0  0  0  0  0  0  0
    0.3090    2.6974   -0.5526 C   0  0  0  0  0  0  0  0  0  0  0  0
    1.0201    1.4839   -0.7782 O   0  0  0  0  0  0  0  0  0  0  0  0
    1.8210    1.1096    0.3429 C   0  0  0  0  0  0  0  0  0  0  0  0
    2.5426   -0.1804   -0.0156 C   0  0  0  0  0  0  0  0  0  0  0  0
    3.4410   -0.6588    1.1200 C   0  0  0  0  0  0  0  0  0  0  0  0
    4.2161   -1.7539    0.8898 N   0  0  0  0  0  0  0  0  0  0  0  0
    4.2169   -2.5972   -0.3038 C   0  0  0  0  0  0  0  0  0  0  0  0
    3.8663   -4.0400    0.0543 C   0  0  0  0  0  0  0  0  0  0  0  0
    5.1201   -2.2557    1.9254 C   0  0  0  0  0  0  0  0  0  0  0  0
    4.7335   -3.6793    2.2961 C   0  0  0  0  0  0  0  0  0  0  0  0
    4.7688   -4.5386    1.1009 N   0  0  0  0  0  0  0  0  0  0  0  0
    4.8999   -5.9136    1.2849 C   0  0  0  0  0  0  0  0  0  0  0  0
    4.1329   -6.8562    0.5698 C   0  0  0  0  0  0  0  0  0  0  0  0
    4.3447   -8.2155    0.7387 C   0  0  0  0  0  0  0  0  0  0  0  0
    5.8764   -6.4012    2.1807 C   0  0  0  0  0  0  0  0  0  0  0  0
    6.0765   -7.7556    2.3464 C   0  0  0  0  0  0  0  0  0  0  0  0
    5.3106   -8.7010    1.6393 C   0  0  0  0  0  0  0  0  0  0  0  0
    5.5402  -10.1509    1.7437 C   0  0  1  0  0  0  0  0  0  0  0  0
    5.2507  -10.8763    0.6690 N   0  0  0  0  0  0  0  0  0  0  0  0
    6.3794  -10.8538   -0.1410 N   0  0  0  0  0  0  0  0  0  0  0  0
    6.0901  -10.9823   -1.5148 C   0  0  0  0  0  0  0  0  0  0  0  0
    4.7643  -10.9750   -1.7819 N   0  0  0  0  0  0  0  0  0  0  0  0
    4.2917  -11.2115   -3.1375 C   0  0  0  0  0  0  0  0  0  0  0  0
    6.9776  -11.0671   -2.3626 O   0  0  0  0  0  0  0  0  0  0  0  0
    7.6789  -11.3302    0.3724 C   0  0  1  0  0  0  0  0  0  0  0  0
    8.6150  -10.1879    0.7717 C   0  0  0  0  0  0  0  0  0  0  0  0
    7.4382  -12.3761    1.4753 C   0  0  0  0  0  0  0  0  0  0  0  0
    7.0398  -11.8326    2.8181 C   0  0  0  0  0  0  0  0  0  0  0  0
    7.6141  -12.3609    3.9761 C   0  0  0  0  0  0  0  0  0  0  0  0
    7.2711  -11.8991    5.2383 C   0  0  0  0  0  0  0  0  0  0  0  0
    7.7964  -12.3714    6.3968 O   0  0  0  0  0  0  0  0  0  0  0  0
    8.7787  -13.4087    6.2880 C   0  0  0  0  0  0  0  0  0  0  0  0
    6.3039  -10.8665    5.3690 C   0  0  0  0  0  0  0  0  0  0  0  0
    5.9960  -10.4852    6.6343 O   0  0  0  0  0  0  0  0  0  0  0  0
    4.9669   -9.4997    6.7814 C   0  0  0  0  0  0  0  0  0  0  0  0
    5.7531  -10.3147    4.2272 C   0  0  0  0  0  0  0  0  0  0  0  0
    6.1154  -10.7686    2.9411 C   0  0  0  0  0  0  0  0  0  0  0  0
    3.4550   -0.0660    2.2020 O   0  0  0  0  0  0  0  0  0  0  0  0
   -8.0012    9.9951   -2.5567 C   0  0  0  0  0  0  0  0  0  0  0  0
   -7.8717   11.3506   -3.1344 C   0  0  0  0  0  0  0  0  0  0  0  0
   -7.1240   11.7604   -4.0133 O   0  0  0  0  0  0  0  0  0  0  0  0
  -10.4529   11.8259   -0.8217 O   0  0  0  0  0  0  0  0  0  0  0  0
  -10.4247   13.7664   -3.4366 C   0  0  0  0  0  0  0  0  0  0  0  0
  -10.5561   15.2367   -3.8130 C   0  0  0  0  0  0  0  0  0  0  0  0
   -9.5229   15.6596   -1.6271 N   0  0  0  0  0  0  0  0  0  0  0  0
  -10.3238   16.1601   -2.6479 C   0  0  0  0  0  0  0  0  0  0  0  0
  -10.7715   17.2950   -2.5815 O   0  0  0  0  0  0  0  0  0  0  0  0
   -8.2757   13.8200   -3.4811 H   0  0  0  0  0  0  0  0  0  0  0  0
  -10.1672    8.9338   -0.1361 H   0  0  0  0  0  0  0  0  0  0  0  0
   -8.9317    6.7994   -0.6151 H   0  0  0  0  0  0  0  0  0  0  0  0
   -7.1370    6.7228   -2.2637 H   0  0  0  0  0  0  0  0  0  0  0  0
   -6.0608    9.6905   -4.1923 H   0  0  0  0  0  0  0  0  0  0  0  0
   -6.0217    6.7448   -4.1077 H   0  0  0  0  0  0  0  0  0  0  0  0
   -4.9144    7.8205   -4.9708 H   0  0  0  0  0  0  0  0  0  0  0  0
   -3.6708    8.3053   -2.8880 H   0  0  0  0  0  0  0  0  0  0  0  0
   -4.8501    7.3737   -1.9332 H   0  0  0  0  0  0  0  0  0  0  0  0
   -2.0066    6.6743   -2.0233 H   0  0  0  0  0  0  0  0  0  0  0  0
   -3.2867    5.7017   -1.2486 H   0  0  0  0  0  0  0  0  0  0  0  0
   -2.8055    3.8188   -2.8288 H   0  0  0  0  0  0  0  0  0  0  0  0
   -1.4743    4.7684   -3.5454 H   0  0  0  0  0  0  0  0  0  0  0  0
   -1.2058    2.1761   -2.0010 H   0  0  0  0  0  0  0  0  0  0  0  0
    0.1640    3.1047   -2.6709 H   0  0  0  0  0  0  0  0  0  0  0  0
    1.0047    3.5277   -0.3518 H   0  0  0  0  0  0  0  0  0  0  0  0
   -0.3668    2.5998    0.3120 H   0  0  0  0  0  0  0  0  0  0  0  0
    2.5477    1.9031    0.5759 H   0  0  0  0  0  0  0  0  0  0  0  0
    1.1918    0.9627    1.2340 H   0  0  0  0  0  0  0  0  0  0  0  0
    1.7991   -0.9564   -0.2470 H   0  0  0  0  0  0  0  0  0  0  0  0
    3.1358   -0.0222   -0.9265 H   0  0  0  0  0  0  0  0  0  0  0  0
    3.5159   -2.2237   -1.0529 H   0  0  0  0  0  0  0  0  0  0  0  0
    5.2262   -2.5847   -0.7408 H   0  0  0  0  0  0  0  0  0  0  0  0
    2.8123   -4.0955    0.3853 H   0  0  0  0  0  0  0  0  0  0  0  0
    3.9774   -4.6463   -0.8506 H   0  0  0  0  0  0  0  0  0  0  0  0
    6.1493   -2.2512    1.5362 H   0  0  0  0  0  0  0  0  0  0  0  0
    5.0649   -1.5977    2.7962 H   0  0  0  0  0  0  0  0  0  0  0  0
    5.4241   -4.0494    3.0568 H   0  0  0  0  0  0  0  0  0  0  0  0
    3.7226   -3.6820    2.7457 H   0  0  0  0  0  0  0  0  0  0  0  0
    3.3567   -6.5244   -0.1117 H   0  0  0  0  0  0  0  0  0  0  0  0
    3.7423   -8.9257    0.1770 H   0  0  0  0  0  0  0  0  0  0  0  0
    6.5010   -5.7019    2.7271 H   0  0  0  0  0  0  0  0  0  0  0  0
    6.8401   -8.0945    3.0436 H   0  0  0  0  0  0  0  0  0  0  0  0
    4.1484  -11.1482   -0.9977 H   0  0  0  0  0  0  0  0  0  0  0  0
    4.5622  -12.2103   -3.5065 H   0  0  0  0  0  0  0  0  0  0  0  0
    4.7169  -10.4670   -3.8179 H   0  0  0  0  0  0  0  0  0  0  0  0
    3.2037  -11.1114   -3.1473 H   0  0  0  0  0  0  0  0  0  0  0  0
    8.1462  -11.8454   -0.4784 H   0  0  0  0  0  0  0  0  0  0  0  0
    9.5498  -10.6173    1.1485 H   0  0  0  0  0  0  0  0  0  0  0  0
    8.1943   -9.5473    1.5579 H   0  0  0  0  0  0  0  0  0  0  0  0
    8.8435   -9.5627   -0.0991 H   0  0  0  0  0  0  0  0  0  0  0  0
    6.6579  -13.0537    1.1015 H   0  0  0  0  0  0  0  0  0  0  0  0
    8.3533  -12.9642    1.5973 H   0  0  0  0  0  0  0  0  0  0  0  0
    8.3548  -13.1483    3.8759 H   0  0  0  0  0  0  0  0  0  0  0  0
    9.0785  -13.6415    7.3132 H   0  0  0  0  0  0  0  0  0  0  0  0
    9.6528  -13.0671    5.7183 H   0  0  0  0  0  0  0  0  0  0  0  0
    8.3558  -14.3061    5.8175 H   0  0  0  0  0  0  0  0  0  0  0  0
    4.8369   -9.3628    7.8582 H   0  0  0  0  0  0  0  0  0  0  0  0
    4.0236   -9.8469    6.3382 H   0  0  0  0  0  0  0  0  0  0  0  0
    5.2664   -8.5470    6.3234 H   0  0  0  0  0  0  0  0  0  0  0  0
    5.0382   -9.4996    4.2960 H   0  0  0  0  0  0  0  0  0  0  0  0
  -10.4803   13.1382   -4.3309 H   0  0  0  0  0  0  0  0  0  0  0  0
  -11.2291   13.4631   -2.7568 H   0  0  0  0  0  0  0  0  0  0  0  0
   -9.8167   15.5004   -4.5834 H   0  0  0  0  0  0  0  0  0  0  0  0
  -11.5428   15.4593   -4.2287 H   0  0  0  0  0  0  0  0  0  0  0  0
   -9.3749   16.2832   -0.8377 H   0  0  0  0  0  0  0  0  0  0  0  0
  1  2  2  0
  2  3  1  0
  3  4  1  0
  4  5  1  0
  5  6  1  0
  6  7  1  0
  7  8  2  0
  8  9  1  0
  9 10  2  0
 10 11  1  0
 11 12  1  0
 12 13  1  0
 13 14  1  0
 14 15  1  0
 15 16  1  0
 16 17  1  0
 17 18  1  0
 18 19  1  0
 19 20  1  0
 20 21  1  0
 21 22  1  0
 22 23  1  0
 23 24  1  0
 24 25  1  0
 25 26  1  0
 24 27  1  0
 27 28  1  0
 26 29  1  0
 28 29  1  0
 29 30  1  0
 30 31  2  0
 31 32  1  0
 30 33  1  0
 33 34  2  0
 32 35  2  0
 34 35  1  0
 36 35  1  6
 36 37  1  0
 37 38  1  0
 38 39  1  0
 39 40  1  0
 40 41  1  0
 39 42  2  0
 38 43  1  0
 43 44  1  0
 43 45  1  0
 45 46  1  0
 46 47  2  0
 47 48  1  0
 48 49  1  0
 49 50  1  0
 48 51  2  0
 51 52  1  0
 52 53  1  0
 51 54  1  0
 54 55  2  0
 46 55  1  0
 36 55  1  0
 23 56  2  0
  6 57  2  0
 10 57  1  0
 57 58  1  0
  4 58  1  0
 58 59  2  0
  5 60  2  0
  3 61  1  0
 61 62  1  0
  2 63  1  0
 63 64  1  0
 62 64  1  0
 64 65  2  0
  3 66  1  6
  7 67  1  0
  8 68  1  0
  9 69  1  0
 11 70  1  0
 12 71  1  0
 12 72  1  0
 13 73  1  0
 13 74  1  0
 15 75  1  0
 15 76  1  0
 16 77  1  0
 16 78  1  0
 18 79  1  0
 18 80  1  0
 19 81  1  0
 19 82  1  0
 21 83  1  0
 21 84  1  0
 22 85  1  0
 22 86  1  0
 25 87  1  0
 25 88  1  0
 26 89  1  0
 26 90  1  0
 27 91  1  0
 27 92  1  0
 28 93  1  0
 28 94  1  0
 31 95  1  0
 32 96  1  0
 33 97  1  0
 34 98  1  0
 40 99  1  0
 41100  1  0
 41101  1  0
 41102  1  0
 43103  1  6
 44104  1  0
 44105  1  0
 44106  1  0
 45107  1  0
 45108  1  0
 47109  1  0
 50110  1  0
 50111  1  0
 50112  1  0
 53113  1  0
 53114  1  0
 53115  1  0
 54116  1  0
 61117  1  0
 61118  1  0
 62119  1  0
 62120  1  0
 63121  1  0
M  END
>  <ANI_energy(hartree)>  (1) 
-3051.598502800359

>  <ANI_energy(kcal/mol)>  (1) 
-1914905.5248937504

$$$$
