
     RDKit          3D

121127  0  0  1  0  0  0  0  0999 V2000
   -3.6854   14.5275    2.0945 O   0  0  0  0  0  0  0  0  0  0  0  0
   -4.5711   13.9012    1.5398 C   0  0  0  0  0  0  0  0  0  0  0  0
   -4.9251   12.4471    1.8382 C   0  0  1  0  0  0  0  0  0  0  0  0
   -4.5197   12.0592    3.1896 N   0  0  0  0  0  0  0  0  0  0  0  0
   -5.0025   12.6590    4.3636 C   0  0  0  0  0  0  0  0  0  0  0  0
   -4.4118   11.8652    5.4729 C   0  0  0  0  0  0  0  0  0  0  0  0
   -4.5422   12.0394    6.8424 C   0  0  0  0  0  0  0  0  0  0  0  0
   -3.8714   11.1320    7.6621 C   0  0  0  0  0  0  0  0  0  0  0  0
   -3.1012   10.0892    7.1295 C   0  0  0  0  0  0  0  0  0  0  0  0
   -2.9716    9.9167    5.7398 C   0  0  0  0  0  0  0  0  0  0  0  0
   -2.2475    8.9092    5.1791 N   0  0  0  0  0  0  0  0  0  0  0  0
   -1.4135    8.0116    5.9485 C   0  0  0  0  0  0  0  0  0  0  0  0
   -0.7520    7.0335    4.9971 C   0  0  0  0  0  0  0  0  0  0  0  0
   -0.1404    7.8149    3.9622 O   0  0  0  0  0  0  0  0  0  0  0  0
    0.9719    7.1941    3.3175 C   0  0  0  0  0  0  0  0  0  0  0  0
    0.6154    6.0562    2.3829 C   0  0  0  0  0  0  0  0  0  0  0  0
    0.2865    4.8869    3.1412 O   0  0  0  0  0  0  0  0  0  0  0  0
    0.1652    3.7174    2.3265 C   0  0  0  0  0  0  0  0  0  0  0  0
    1.5166    3.0395    2.1187 C   0  0  0  0  0  0  0  0  0  0  0  0
    1.2804    1.8950    1.3066 O   0  0  0  0  0  0  0  0  0  0  0  0
    2.4764    1.1770    1.0054 C   0  0  0  0  0  0  0  0  0  0  0  0
    2.0857   -0.0138    0.1432 C   0  0  0  0  0  0  0  0  0  0  0  0
    3.2952   -0.8528   -0.2503 C   0  0  0  0  0  0  0  0  0  0  0  0
    3.0581   -2.0272   -0.8920 N   0  0  0  0  0  0  0  0  0  0  0  0
    1.7135   -2.5425   -1.1853 C   0  0  0  0  0  0  0  0  0  0  0  0
    1.7786   -3.5725   -2.3086 C   0  0  0  0  0  0  0  0  0  0  0  0
    4.1813   -2.9011   -1.2585 C   0  0  0  0  0  0  0  0  0  0  0  0
    3.7791   -4.3551   -1.0650 C   0  0  0  0  0  0  0  0  0  0  0  0
    2.6516   -4.6846   -1.9362 N   0  0  0  0  0  0  0  0  0  0  0  0
    2.4333   -5.9644   -2.3733 C   0  0  0  0  0  0  0  0  0  0  0  0
    1.6182   -6.2273   -3.4964 C   0  0  0  0  0  0  0  0  0  0  0  0
    1.4067   -7.5264   -3.9228 C   0  0  0  0  0  0  0  0  0  0  0  0
    3.0210   -7.0652   -1.7089 C   0  0  0  0  0  0  0  0  0  0  0  0
    2.7812   -8.3578   -2.1290 C   0  0  0  0  0  0  0  0  0  0  0  0
    1.9558   -8.6270   -3.2362 C   0  0  0  0  0  0  0  0  0  0  0  0
    1.7177   -9.9847   -3.7503 C   0  0  0  0  0  0  0  0  0  0  0  0
    1.5134  -10.0923   -5.0616 N   0  0  0  0  0  0  0  0  0  0  0  0
    2.7717  -10.2428   -5.6312 N   0  0  0  0  0  0  0  0  0  0  0  0
    2.9007   -9.6541   -6.9020 C   0  0  0  0  0  0  0  0  0  0  0  0
    1.7949   -8.9825   -7.2931 N   0  0  0  0  0  0  0  0  0  0  0  0
    1.7250   -8.3962   -8.6223 C   0  0  0  0  0  0  0  0  0  0  0  0
    3.9404   -9.7430   -7.5538 O   0  0  0  0  0  0  0  0  0  0  0  0
    3.6306  -11.3879   -5.2767 C   0  0  1  0  0  0  0  0  0  0  0  0
    4.7711  -11.0004   -4.3352 C   0  0  0  0  0  0  0  0  0  0  0  0
    2.7507  -12.5438   -4.7700 C   0  0  0  0  0  0  0  0  0  0  0  0
    2.2447  -12.3995   -3.3627 C   0  0  0  0  0  0  0  0  0  0  0  0
    2.2970  -13.4860   -2.4894 C   0  0  0  0  0  0  0  0  0  0  0  0
    1.8387  -13.3967   -1.1764 C   0  0  0  0  0  0  0  0  0  0  0  0
    1.8967  -14.4145   -0.2831 O   0  0  0  0  0  0  0  0  0  0  0  0
    2.4834  -15.6431   -0.7227 C   0  0  0  0  0  0  0  0  0  0  0  0
    1.2942  -12.1784   -0.7102 C   0  0  0  0  0  0  0  0  0  0  0  0
    0.8756  -11.9670    0.5737 O   0  0  0  0  0  0  0  0  0  0  0  0
   -0.0159  -12.9237    1.1908 C   0  0  0  0  0  0  0  0  0  0  0  0
    1.2784  -11.0888   -1.5595 C   0  0  0  0  0  0  0  0  0  0  0  0
    1.7486  -11.1608   -2.8849 C   0  0  0  0  0  0  0  0  0  0  0  0
    4.4394   -0.4657    0.0038 O   0  0  0  0  0  0  0  0  0  0  0  0
   -3.6507   10.8422    4.9203 C   0  0  0  0  0  0  0  0  0  0  0  0
   -3.7166   10.9396    3.4482 C   0  0  0  0  0  0  0  0  0  0  0  0
   -3.2031   10.2301    2.5927 O   0  0  0  0  0  0  0  0  0  0  0  0
   -5.7444   13.6208    4.4133 O   0  0  0  0  0  0  0  0  0  0  0  0
   -6.4012   12.1537    1.5525 C   0  0  0  0  0  0  0  0  0  0  0  0
   -6.7037   12.4976    0.0997 C   0  0  0  0  0  0  0  0  0  0  0  0
   -5.3030   14.4720    0.5086 N   0  0  0  0  0  0  0  0  0  0  0  0
   -6.3164   13.9070   -0.2583 C   0  0  0  0  0  0  0  0  0  0  0  0
   -6.8190   14.5368   -1.1767 O   0  0  0  0  0  0  0  0  0  0  0  0
   -4.3124   11.8317    1.1655 H   0  0  0  0  0  0  0  0  0  0  0  0
   -5.1415   12.8498    7.2448 H   0  0  0  0  0  0  0  0  0  0  0  0
   -3.9433   11.2284    8.7423 H   0  0  0  0  0  0  0  0  0  0  0  0
   -2.5911    9.4086    7.8075 H   0  0  0  0  0  0  0  0  0  0  0  0
   -2.0308    9.0200    4.1935 H   0  0  0  0  0  0  0  0  0  0  0  0
   -0.6395    8.5611    6.5146 H   0  0  0  0  0  0  0  0  0  0  0  0
   -2.0141    7.4640    6.6890 H   0  0  0  0  0  0  0  0  0  0  0  0
    0.0005    6.4368    5.5290 H   0  0  0  0  0  0  0  0  0  0  0  0
   -1.4944    6.3474    4.5608 H   0  0  0  0  0  0  0  0  0  0  0  0
    1.4453    7.9864    2.7218 H   0  0  0  0  0  0  0  0  0  0  0  0
    1.7148    6.8488    4.0586 H   0  0  0  0  0  0  0  0  0  0  0  0
   -0.2260    6.3443    1.7306 H   0  0  0  0  0  0  0  0  0  0  0  0
    1.4880    5.8582    1.7413 H   0  0  0  0  0  0  0  0  0  0  0  0
   -0.5046    3.0278    2.8555 H   0  0  0  0  0  0  0  0  0  0  0  0
   -0.2920    3.9475    1.3503 H   0  0  0  0  0  0  0  0  0  0  0  0
    2.2270    3.7248    1.6257 H   0  0  0  0  0  0  0  0  0  0  0  0
    1.9451    2.7489    3.0924 H   0  0  0  0  0  0  0  0  0  0  0  0
    3.1882    1.8193    0.4648 H   0  0  0  0  0  0  0  0  0  0  0  0
    2.9688    0.8403    1.9314 H   0  0  0  0  0  0  0  0  0  0  0  0
    1.3457   -0.6272    0.6756 H   0  0  0  0  0  0  0  0  0  0  0  0
    1.5931    0.3614   -0.7672 H   0  0  0  0  0  0  0  0  0  0  0  0
    1.2581   -2.9967   -0.2900 H   0  0  0  0  0  0  0  0  0  0  0  0
    1.0645   -1.7241   -1.5114 H   0  0  0  0  0  0  0  0  0  0  0  0
    0.7639   -3.9455   -2.4876 H   0  0  0  0  0  0  0  0  0  0  0  0
    2.1221   -3.0796   -3.2355 H   0  0  0  0  0  0  0  0  0  0  0  0
    4.4867   -2.7257   -2.3022 H   0  0  0  0  0  0  0  0  0  0  0  0
    5.0342   -2.6574   -0.6208 H   0  0  0  0  0  0  0  0  0  0  0  0
    4.6363   -4.9927   -1.3155 H   0  0  0  0  0  0  0  0  0  0  0  0
    3.5381   -4.5258   -0.0004 H   0  0  0  0  0  0  0  0  0  0  0  0
    1.1671   -5.4075   -4.0483 H   0  0  0  0  0  0  0  0  0  0  0  0
    0.7702   -7.7104   -4.7859 H   0  0  0  0  0  0  0  0  0  0  0  0
    3.6559   -6.8975   -0.8449 H   0  0  0  0  0  0  0  0  0  0  0  0
    3.2532   -9.1845   -1.6005 H   0  0  0  0  0  0  0  0  0  0  0  0
    0.9441   -9.1879   -6.7854 H   0  0  0  0  0  0  0  0  0  0  0  0
    2.5565   -7.6991   -8.7673 H   0  0  0  0  0  0  0  0  0  0  0  0
    0.7876   -7.8412   -8.7078 H   0  0  0  0  0  0  0  0  0  0  0  0
    1.7672   -9.1534   -9.4174 H   0  0  0  0  0  0  0  0  0  0  0  0
    4.0892  -11.7067   -6.2243 H   0  0  0  0  0  0  0  0  0  0  0  0
    5.4179  -10.2573   -4.8145 H   0  0  0  0  0  0  0  0  0  0  0  0
    5.3648  -11.8953   -4.1175 H   0  0  0  0  0  0  0  0  0  0  0  0
    4.4093  -10.5898   -3.3830 H   0  0  0  0  0  0  0  0  0  0  0  0
    1.9019  -12.6208   -5.4635 H   0  0  0  0  0  0  0  0  0  0  0  0
    3.3248  -13.4724   -4.8417 H   0  0  0  0  0  0  0  0  0  0  0  0
    2.7200  -14.4219   -2.8421 H   0  0  0  0  0  0  0  0  0  0  0  0
    2.4472  -16.3151    0.1379 H   0  0  0  0  0  0  0  0  0  0  0  0
    3.5276  -15.4976   -1.0292 H   0  0  0  0  0  0  0  0  0  0  0  0
    1.9096  -16.0806   -1.5497 H   0  0  0  0  0  0  0  0  0  0  0  0
   -0.5750  -12.3564    1.9413 H   0  0  0  0  0  0  0  0  0  0  0  0
    0.5472  -13.7274    1.6771 H   0  0  0  0  0  0  0  0  0  0  0  0
   -0.7129  -13.3418    0.4536 H   0  0  0  0  0  0  0  0  0  0  0  0
    0.8832  -10.1536   -1.1725 H   0  0  0  0  0  0  0  0  0  0  0  0
   -6.5848   11.0907    1.7378 H   0  0  0  0  0  0  0  0  0  0  0  0
   -7.0367   12.7339    2.2314 H   0  0  0  0  0  0  0  0  0  0  0  0
   -6.1464   11.8305   -0.5743 H   0  0  0  0  0  0  0  0  0  0  0  0
   -7.7647   12.3706   -0.1329 H   0  0  0  0  0  0  0  0  0  0  0  0
   -5.0490   15.4267    0.2681 H   0  0  0  0  0  0  0  0  0  0  0  0
  1  2  2  0
  2  3  1  0
  3  4  1  0
  4  5  1  0
  5  6  1  0
  6  7  2  0
  7  8  1  0
  8  9  2  0
  9 10  1  0
 10 11  1  0
 11 12  1  0
 12 13  1  0
 13 14  1  0
 14 15  1  0
 15 16  1  0
 16 17  1  0
 17 18  1  0
 18 19  1  0
 19 20  1  0
 20 21  1  0
 21 22  1  0
 22 23  1  0
 23 24  1  0
 24 25  1  0
 25 26  1  0
 24 27  1  0
 27 28  1  0
 28 29  1  0
 26 29  1  0
 29 30  1  0
 30 31  2  0
 31 32  1  0
 30 33  1  0
 33 34  2  0
 34 35  1  0
 32 35  2  0
 35 36  1  0
 36 37  1  0
 37 38  1  0
 38 39  1  0
 39 40  1  0
 40 41  1  0
 39 42  2  0
 38 43  1  0
 43 44  1  0
 43 45  1  0
 45 46  1  0
 46 47  2  0
 47 48  1  0
 48 49  1  0
 49 50  1  0
 48 51  2  0
 51 52  1  0
 52 53  1  0
 51 54  1  0
 54 55  2  0
 46 55  1  0
 36 55  1  0
 23 56  2  0
 10 57  2  0
  6 57  1  0
  4 58  1  0
 57 58  1  0
 58 59  2  0
  5 60  2  0
  3 61  1  0
 61 62  1  0
  2 63  1  0
 62 64  1  0
 63 64  1  0
 64 65  2  0
  3 66  1  6
  7 67  1  0
  8 68  1  0
  9 69  1  0
 11 70  1  0
 12 71  1  0
 12 72  1  0
 13 73  1  0
 13 74  1  0
 15 75  1  0
 15 76  1  0
 16 77  1  0
 16 78  1  0
 18 79  1  0
 18 80  1  0
 19 81  1  0
 19 82  1  0
 21 83  1  0
 21 84  1  0
 22 85  1  0
 22 86  1  0
 25 87  1  0
 25 88  1  0
 26 89  1  0
 26 90  1  0
 27 91  1  0
 27 92  1  0
 28 93  1  0
 28 94  1  0
 31 95  1  0
 32 96  1  0
 33 97  1  0
 34 98  1  0
 40 99  1  0
 41100  1  0
 41101  1  0
 41102  1  0
 43103  1  6
 44104  1  0
 44105  1  0
 44106  1  0
 45107  1  0
 45108  1  0
 47109  1  0
 50110  1  0
 50111  1  0
 50112  1  0
 53113  1  0
 53114  1  0
 53115  1  0
 54116  1  0
 61117  1  0
 61118  1  0
 62119  1  0
 62120  1  0
 63121  1  0
M  END
>  <ANI_energy(hartree)>  (1) 
-3051.5899409507647

>  <ANI_energy(kcal/mol)>  (1) 
-1914900.1522560734

$$$$

     RDKit          3D

121127  0  0  1  0  0  0  0  0999 V2000
   -3.5023   13.8565    2.6431 O   0  0  0  0  0  0  0  0  0  0  0  0
   -4.1320   13.2698    1.7805 C   0  0  0  0  0  0  0  0  0  0  0  0
   -4.2712   11.7521    1.6868 C   0  0  1  0  0  0  0  0  0  0  0  0
   -4.0952   11.1124    2.9910 N   0  0  0  0  0  0  0  0  0  0  0  0
   -4.8949   11.3739    4.1157 C   0  0  0  0  0  0  0  0  0  0  0  0
   -4.3526   10.4977    5.1865 C   0  0  0  0  0  0  0  0  0  0  0  0
   -4.7554   10.3716    6.5075 C   0  0  0  0  0  0  0  0  0  0  0  0
   -4.0488    9.4673    7.3006 C   0  0  0  0  0  0  0  0  0  0  0  0
   -2.9757    8.7233    6.7909 C   0  0  0  0  0  0  0  0  0  0  0  0
   -2.5683    8.8578    5.4510 C   0  0  0  0  0  0  0  0  0  0  0  0
   -1.5239    8.1712    4.9164 N   0  0  0  0  0  0  0  0  0  0  0  0
   -0.6870    7.2601    5.6632 C   0  0  0  0  0  0  0  0  0  0  0  0
    0.5114    6.8921    4.8164 C   0  0  0  0  0  0  0  0  0  0  0  0
    0.0132    6.2889    3.6156 O   0  0  0  0  0  0  0  0  0  0  0  0
    1.0358    5.8708    2.7096 C   0  0  0  0  0  0  0  0  0  0  0  0
    1.4168    4.4100    2.8775 C   0  0  0  0  0  0  0  0  0  0  0  0
    2.0247    4.2394    4.1587 O   0  0  0  0  0  0  0  0  0  0  0  0
    2.0424    2.8910    4.6305 C   0  0  0  0  0  0  0  0  0  0  0  0
    3.0910    2.0190    3.9686 C   0  0  0  0  0  0  0  0  0  0  0  0
    2.6440    1.6028    2.6780 O   0  0  0  0  0  0  0  0  0  0  0  0
    3.6711    0.9192    1.9542 C   0  0  0  0  0  0  0  0  0  0  0  0
    3.0190    0.1961    0.7848 C   0  0  0  0  0  0  0  0  0  0  0  0
    4.0494   -0.5353   -0.0673 C   0  0  0  0  0  0  0  0  0  0  0  0
    3.6088   -1.5492   -0.8581 N   0  0  0  0  0  0  0  0  0  0  0  0
    2.2140   -2.0134   -0.8863 C   0  0  0  0  0  0  0  0  0  0  0  0
    1.9738   -2.8980   -2.1062 C   0  0  0  0  0  0  0  0  0  0  0  0
    4.5712   -2.3447   -1.6327 C   0  0  0  0  0  0  0  0  0  0  0  0
    4.2074   -3.8178   -1.5311 C   0  0  0  0  0  0  0  0  0  0  0  0
    2.8802   -4.0455   -2.1016 N   0  0  0  0  0  0  0  0  0  0  0  0
    2.5237   -5.2650   -2.6168 C   0  0  0  0  0  0  0  0  0  0  0  0
    1.4390   -5.3930   -3.5120 C   0  0  0  0  0  0  0  0  0  0  0  0
    1.0845   -6.6315   -4.0242 C   0  0  0  0  0  0  0  0  0  0  0  0
    3.2382   -6.4314   -2.2675 C   0  0  0  0  0  0  0  0  0  0  0  0
    2.8603   -7.6634   -2.7691 C   0  0  0  0  0  0  0  0  0  0  0  0
    1.7727   -7.7958   -3.6474 C   0  0  0  0  0  0  0  0  0  0  0  0
    1.3541   -9.1304   -4.1426 C   0  0  0  0  0  0  0  0  0  0  0  0
    1.5080   -9.3871   -5.4280 N   0  0  0  0  0  0  0  0  0  0  0  0
    2.6962  -10.1041   -5.5339 N   0  0  0  0  0  0  0  0  0  0  0  0
    3.4462   -9.7763   -6.6841 C   0  0  0  0  0  0  0  0  0  0  0  0
    2.9487   -8.7302   -7.3693 N   0  0  0  0  0  0  0  0  0  0  0  0
    3.6193   -8.2381   -8.5607 C   0  0  0  0  0  0  0  0  0  0  0  0
    4.4575  -10.4043   -6.9969 O   0  0  0  0  0  0  0  0  0  0  0  0
    2.7584  -11.4837   -5.0237 C   0  0  1  0  0  0  0  0  0  0  0  0
    3.6886  -11.6186   -3.8181 C   0  0  0  0  0  0  0  0  0  0  0  0
    1.3310  -12.0011   -4.7809 C   0  0  0  0  0  0  0  0  0  0  0  0
    0.6874  -11.4695   -3.5372 C   0  0  0  0  0  0  0  0  0  0  0  0
    0.0894  -12.3393   -2.6243 C   0  0  0  0  0  0  0  0  0  0  0  0
   -0.4754  -11.8814   -1.4343 C   0  0  0  0  0  0  0  0  0  0  0  0
   -1.0364  -12.6917   -0.5047 O   0  0  0  0  0  0  0  0  0  0  0  0
   -1.0483  -14.0965   -0.7735 C   0  0  0  0  0  0  0  0  0  0  0  0
   -0.4509  -10.4995   -1.1345 C   0  0  0  0  0  0  0  0  0  0  0  0
   -0.9243   -9.9607    0.0290 O   0  0  0  0  0  0  0  0  0  0  0  0
   -2.2434  -10.3341    0.4935 C   0  0  0  0  0  0  0  0  0  0  0  0
    0.1736   -9.6389   -2.0172 C   0  0  0  0  0  0  0  0  0  0  0  0
    0.7435  -10.0881   -3.2267 C   0  0  0  0  0  0  0  0  0  0  0  0
    5.2360   -0.1945   -0.0401 O   0  0  0  0  0  0  0  0  0  0  0  0
   -3.2979    9.7649    4.6564 C   0  0  0  0  0  0  0  0  0  0  0  0
   -3.1241   10.1318    3.2369 C   0  0  0  0  0  0  0  0  0  0  0  0
   -2.3254    9.7036    2.4130 O   0  0  0  0  0  0  0  0  0  0  0  0
   -5.8197   12.1618    4.1584 O   0  0  0  0  0  0  0  0  0  0  0  0
   -5.5772   11.3444    0.9993 C   0  0  0  0  0  0  0  0  0  0  0  0
   -5.6367   11.9856   -0.3814 C   0  0  0  0  0  0  0  0  0  0  0  0
   -4.7349   13.9702    0.7462 N   0  0  0  0  0  0  0  0  0  0  0  0
   -5.4530   13.4784   -0.3383 C   0  0  0  0  0  0  0  0  0  0  0  0
   -5.8700   14.2391   -1.1985 O   0  0  0  0  0  0  0  0  0  0  0  0
   -3.4297   11.3991    1.0760 H   0  0  0  0  0  0  0  0  0  0  0  0
   -5.5849   10.9551    6.8941 H   0  0  0  0  0  0  0  0  0  0  0  0
   -4.3278    9.3333    8.3427 H   0  0  0  0  0  0  0  0  0  0  0  0
   -2.4538    8.0279    7.4450 H   0  0  0  0  0  0  0  0  0  0  0  0
   -1.4186    8.2288    3.9106 H   0  0  0  0  0  0  0  0  0  0  0  0
   -0.3439    7.7360    6.5937 H   0  0  0  0  0  0  0  0  0  0  0  0
   -1.2327    6.3468    5.9582 H   0  0  0  0  0  0  0  0  0  0  0  0
    1.0782    7.8046    4.5668 H   0  0  0  0  0  0  0  0  0  0  0  0
    1.1759    6.2070    5.3551 H   0  0  0  0  0  0  0  0  0  0  0  0
    0.6367    6.0092    1.6947 H   0  0  0  0  0  0  0  0  0  0  0  0
    1.9321    6.5056    2.8059 H   0  0  0  0  0  0  0  0  0  0  0  0
    0.5171    3.7770    2.7948 H   0  0  0  0  0  0  0  0  0  0  0  0
    2.1172    4.1245    2.0784 H   0  0  0  0  0  0  0  0  0  0  0  0
    2.2848    2.9577    5.6984 H   0  0  0  0  0  0  0  0  0  0  0  0
    1.0450    2.4278    4.5418 H   0  0  0  0  0  0  0  0  0  0  0  0
    4.0388    2.5803    3.8941 H   0  0  0  0  0  0  0  0  0  0  0  0
    3.2622    1.1335    4.6027 H   0  0  0  0  0  0  0  0  0  0  0  0
    4.4255    1.6358    1.5948 H   0  0  0  0  0  0  0  0  0  0  0  0
    4.1868    0.1939    2.6044 H   0  0  0  0  0  0  0  0  0  0  0  0
    2.2490   -0.4885    1.1620 H   0  0  0  0  0  0  0  0  0  0  0  0
    2.5115    0.9339    0.1439 H   0  0  0  0  0  0  0  0  0  0  0  0
    1.9646   -2.5720    0.0305 H   0  0  0  0  0  0  0  0  0  0  0  0
    1.5395   -1.1526   -0.9507 H   0  0  0  0  0  0  0  0  0  0  0  0
    0.9370   -3.2492   -2.0687 H   0  0  0  0  0  0  0  0  0  0  0  0
    2.0897   -2.2921   -3.0222 H   0  0  0  0  0  0  0  0  0  0  0  0
    4.5772   -2.0272   -2.6869 H   0  0  0  0  0  0  0  0  0  0  0  0
    5.5703   -2.1713   -1.2281 H   0  0  0  0  0  0  0  0  0  0  0  0
    4.9535   -4.4043   -2.0822 H   0  0  0  0  0  0  0  0  0  0  0  0
    4.2562   -4.1290   -0.4723 H   0  0  0  0  0  0  0  0  0  0  0  0
    0.8834   -4.5127   -3.8248 H   0  0  0  0  0  0  0  0  0  0  0  0
    0.2347   -6.6974   -4.7020 H   0  0  0  0  0  0  0  0  0  0  0  0
    4.0809   -6.3655   -1.5858 H   0  0  0  0  0  0  0  0  0  0  0  0
    3.4279   -8.5544   -2.4997 H   0  0  0  0  0  0  0  0  0  0  0  0
    2.0889   -8.3204   -7.0322 H   0  0  0  0  0  0  0  0  0  0  0  0
    3.0642   -7.3772   -8.9399 H   0  0  0  0  0  0  0  0  0  0  0  0
    3.6602   -9.0081   -9.3403 H   0  0  0  0  0  0  0  0  0  0  0  0
    4.6456   -7.9269   -8.3334 H   0  0  0  0  0  0  0  0  0  0  0  0
    3.2004  -12.0834   -5.8351 H   0  0  0  0  0  0  0  0  0  0  0  0
    4.6943  -11.2719   -4.0786 H   0  0  0  0  0  0  0  0  0  0  0  0
    3.7472  -12.6769   -3.5374 H   0  0  0  0  0  0  0  0  0  0  0  0
    3.3313  -11.0557   -2.9472 H   0  0  0  0  0  0  0  0  0  0  0  0
    0.7322  -11.7383   -5.6631 H   0  0  0  0  0  0  0  0  0  0  0  0
    1.3679  -13.0930   -4.7190 H   0  0  0  0  0  0  0  0  0  0  0  0
    0.0836  -13.4030   -2.8409 H   0  0  0  0  0  0  0  0  0  0  0  0
   -1.6246  -14.3181   -1.6806 H   0  0  0  0  0  0  0  0  0  0  0  0
   -1.5353  -14.5595    0.0878 H   0  0  0  0  0  0  0  0  0  0  0  0
   -0.0287  -14.4910   -0.8730 H   0  0  0  0  0  0  0  0  0  0  0  0
   -2.5931   -9.4836    1.0866 H   0  0  0  0  0  0  0  0  0  0  0  0
   -2.1973  -11.2301    1.1215 H   0  0  0  0  0  0  0  0  0  0  0  0
   -2.9260  -10.4971   -0.3501 H   0  0  0  0  0  0  0  0  0  0  0  0
    0.2106   -8.5752   -1.7807 H   0  0  0  0  0  0  0  0  0  0  0  0
   -5.5947   10.2536    0.9131 H   0  0  0  0  0  0  0  0  0  0  0  0
   -6.4320   11.6526    1.6118 H   0  0  0  0  0  0  0  0  0  0  0  0
   -4.8399   11.5827   -1.0238 H   0  0  0  0  0  0  0  0  0  0  0  0
   -6.5863   11.7772   -0.8820 H   0  0  0  0  0  0  0  0  0  0  0  0
   -4.6171   14.9796    0.7753 H   0  0  0  0  0  0  0  0  0  0  0  0
  1  2  2  0
  2  3  1  0
  3  4  1  0
  4  5  1  0
  5  6  1  0
  6  7  2  0
  7  8  1  0
  8  9  2  0
  9 10  1  0
 10 11  1  0
 11 12  1  0
 12 13  1  0
 13 14  1  0
 14 15  1  0
 15 16  1  0
 16 17  1  0
 17 18  1  0
 18 19  1  0
 19 20  1  0
 20 21  1  0
 21 22  1  0
 22 23  1  0
 23 24  1  0
 24 25  1  0
 25 26  1  0
 24 27  1  0
 27 28  1  0
 28 29  1  0
 26 29  1  0
 29 30  1  0
 30 31  2  0
 31 32  1  0
 30 33  1  0
 33 34  2  0
 34 35  1  0
 32 35  2  0
 35 36  1  0
 36 37  1  0
 37 38  1  0
 38 39  1  0
 39 40  1  0
 40 41  1  0
 39 42  2  0
 38 43  1  0
 43 44  1  0
 43 45  1  0
 45 46  1  0
 46 47  2  0
 47 48  1  0
 48 49  1  0
 49 50  1  0
 48 51  2  0
 51 52  1  0
 52 53  1  0
 51 54  1  0
 54 55  2  0
 46 55  1  0
 36 55  1  0
 23 56  2  0
 10 57  2  0
  6 57  1  0
  4 58  1  0
 57 58  1  0
 58 59  2  0
  5 60  2  0
  3 61  1  0
 61 62  1  0
  2 63  1  0
 62 64  1  0
 63 64  1  0
 64 65  2  0
  3 66  1  6
  7 67  1  0
  8 68  1  0
  9 69  1  0
 11 70  1  0
 12 71  1  0
 12 72  1  0
 13 73  1  0
 13 74  1  0
 15 75  1  0
 15 76  1  0
 16 77  1  0
 16 78  1  0
 18 79  1  0
 18 80  1  0
 19 81  1  0
 19 82  1  0
 21 83  1  0
 21 84  1  0
 22 85  1  0
 22 86  1  0
 25 87  1  0
 25 88  1  0
 26 89  1  0
 26 90  1  0
 27 91  1  0
 27 92  1  0
 28 93  1  0
 28 94  1  0
 31 95  1  0
 32 96  1  0
 33 97  1  0
 34 98  1  0
 40 99  1  0
 41100  1  0
 41101  1  0
 41102  1  0
 43103  1  6
 44104  1  0
 44105  1  0
 44106  1  0
 45107  1  0
 45108  1  0
 47109  1  0
 50110  1  0
 50111  1  0
 50112  1  0
 53113  1  0
 53114  1  0
 53115  1  0
 54116  1  0
 61117  1  0
 61118  1  0
 62119  1  0
 62120  1  0
 63121  1  0
M  END
>  <ANI_energy(hartree)>  (1) 
-3051.585560963048

>  <ANI_energy(kcal/mol)>  (1) 
-1914897.4037743614

$$$$

     RDKit          3D

121127  0  0  1  0  0  0  0  0999 V2000
   -3.5090   13.4456    2.2728 O   0  0  0  0  0  0  0  0  0  0  0  0
   -4.0388   12.9406    1.2987 C   0  0  0  0  0  0  0  0  0  0  0  0
   -4.2737   11.4439    1.1179 C   0  0  1  0  0  0  0  0  0  0  0  0
   -4.3527   10.7525    2.4054 N   0  0  0  0  0  0  0  0  0  0  0  0
   -5.3117   11.0297    3.3947 C   0  0  0  0  0  0  0  0  0  0  0  0
   -5.0802   10.0114    4.4524 C   0  0  0  0  0  0  0  0  0  0  0  0
   -5.7311    9.8349    5.6642 C   0  0  0  0  0  0  0  0  0  0  0  0
   -5.3069    8.7719    6.4615 C   0  0  0  0  0  0  0  0  0  0  0  0
   -4.2673    7.9199    6.0627 C   0  0  0  0  0  0  0  0  0  0  0  0
   -3.6045    8.1094    4.8375 C   0  0  0  0  0  0  0  0  0  0  0  0
   -2.5679    7.3351    4.4129 N   0  0  0  0  0  0  0  0  0  0  0  0
   -2.1443    6.1263    5.0845 C   0  0  0  0  0  0  0  0  0  0  0  0
   -0.9047    5.5852    4.3983 C   0  0  0  0  0  0  0  0  0  0  0  0
   -1.2155    5.4080    3.0125 O   0  0  0  0  0  0  0  0  0  0  0  0
   -0.0822    5.4375    2.1416 C   0  0  0  0  0  0  0  0  0  0  0  0
    0.8504    4.2511    2.2749 C   0  0  0  0  0  0  0  0  0  0  0  0
    1.6127    4.3911    3.4757 O   0  0  0  0  0  0  0  0  0  0  0  0
    2.1045    3.1551    4.0033 C   0  0  0  0  0  0  0  0  0  0  0  0
    3.2016    2.5060    3.1827 C   0  0  0  0  0  0  0  0  0  0  0  0
    2.6449    1.8792    2.0281 O   0  0  0  0  0  0  0  0  0  0  0  0
    3.6446    1.2907    1.1929 C   0  0  0  0  0  0  0  0  0  0  0  0
    2.9266    0.5452    0.0796 C   0  0  0  0  0  0  0  0  0  0  0  0
    3.9069   -0.1465   -0.8617 C   0  0  0  0  0  0  0  0  0  0  0  0
    3.3874   -0.8247   -1.9262 N   0  0  0  0  0  0  0  0  0  0  0  0
    1.9848   -1.1969   -2.1099 C   0  0  0  0  0  0  0  0  0  0  0  0
    1.7919   -2.6827   -1.8237 C   0  0  0  0  0  0  0  0  0  0  0  0
    4.2647   -1.6119   -2.7938 C   0  0  0  0  0  0  0  0  0  0  0  0
    4.0918   -3.0999   -2.5086 C   0  0  0  0  0  0  0  0  0  0  0  0
    2.6844   -3.4894   -2.6811 N   0  0  0  0  0  0  0  0  0  0  0  0
    2.4011   -4.8583   -2.7768 C   0  0  0  0  0  0  0  0  0  0  0  0
    1.1003   -5.2705   -3.1271 C   0  0  0  0  0  0  0  0  0  0  0  0
    0.7969   -6.6125   -3.2925 C   0  0  0  0  0  0  0  0  0  0  0  0
    3.3814   -5.8516   -2.5852 C   0  0  0  0  0  0  0  0  0  0  0  0
    3.0614   -7.1925   -2.7266 C   0  0  0  0  0  0  0  0  0  0  0  0
    1.7670   -7.6041   -3.0789 C   0  0  0  0  0  0  0  0  0  0  0  0
    1.4297   -9.0441   -3.2050 C   0  0  0  0  0  0  0  0  0  0  0  0
    1.1499   -9.5094   -4.4067 N   0  0  0  0  0  0  0  0  0  0  0  0
    2.3302  -10.0759   -4.8808 N   0  0  0  0  0  0  0  0  0  0  0  0
    2.5120   -9.9011   -6.2705 C   0  0  0  0  0  0  0  0  0  0  0  0
    1.5967   -9.0898   -6.8326 N   0  0  0  0  0  0  0  0  0  0  0  0
    1.6527   -8.7794   -8.2508 C   0  0  0  0  0  0  0  0  0  0  0  0
    3.4323  -10.4494   -6.8765 O   0  0  0  0  0  0  0  0  0  0  0  0
    2.8374  -11.3082   -4.2540 C   0  0  1  0  0  0  0  0  0  0  0  0
    4.1276  -11.0795   -3.4667 C   0  0  0  0  0  0  0  0  0  0  0  0
    1.7091  -11.9620   -3.4394 C   0  0  0  0  0  0  0  0  0  0  0  0
    1.4343  -11.3019   -2.1224 C   0  0  0  0  0  0  0  0  0  0  0  0
    1.3055  -12.0686   -0.9640 C   0  0  0  0  0  0  0  0  0  0  0  0
    1.1265  -11.4817    0.2885 C   0  0  0  0  0  0  0  0  0  0  0  0
    0.9598  -12.1849    1.4344 O   0  0  0  0  0  0  0  0  0  0  0  0
    0.9562  -13.6123    1.3393 C   0  0  0  0  0  0  0  0  0  0  0  0
    1.0955  -10.0718    0.4033 C   0  0  0  0  0  0  0  0  0  0  0  0
    0.8709   -9.4067    1.5764 O   0  0  0  0  0  0  0  0  0  0  0  0
    1.6481   -9.7635    2.7439 C   0  0  0  0  0  0  0  0  0  0  0  0
    1.1914   -9.3091   -0.7452 C   0  0  0  0  0  0  0  0  0  0  0  0
    1.3625   -9.8906   -2.0181 C   0  0  0  0  0  0  0  0  0  0  0  0
    5.1216   -0.0808   -0.6629 O   0  0  0  0  0  0  0  0  0  0  0  0
   -4.0466    9.1814    4.0369 C   0  0  0  0  0  0  0  0  0  0  0  0
   -3.5801    9.6229    2.7086 C   0  0  0  0  0  0  0  0  0  0  0  0
   -2.7174    9.1408    1.9844 O   0  0  0  0  0  0  0  0  0  0  0  0
   -6.1377   11.9204    3.3488 O   0  0  0  0  0  0  0  0  0  0  0  0
   -5.4797   11.1603    0.2172 C   0  0  0  0  0  0  0  0  0  0  0  0
   -5.2728   11.8497   -1.1251 C   0  0  0  0  0  0  0  0  0  0  0  0
   -4.4175   13.7200    0.2154 N   0  0  0  0  0  0  0  0  0  0  0  0
   -4.9924   13.3218   -0.9868 C   0  0  0  0  0  0  0  0  0  0  0  0
   -5.2142   14.1408   -1.8658 O   0  0  0  0  0  0  0  0  0  0  0  0
   -3.3740   11.0446    0.6303 H   0  0  0  0  0  0  0  0  0  0  0  0
   -6.5355   10.4984    5.9652 H   0  0  0  0  0  0  0  0  0  0  0  0
   -5.7883    8.5931    7.4194 H   0  0  0  0  0  0  0  0  0  0  0  0
   -3.9780    7.0969    6.7126 H   0  0  0  0  0  0  0  0  0  0  0  0
   -2.3162    7.4538    3.4371 H   0  0  0  0  0  0  0  0  0  0  0  0
   -1.9101    6.3423    6.1362 H   0  0  0  0  0  0  0  0  0  0  0  0
   -2.9349    5.3553    5.0879 H   0  0  0  0  0  0  0  0  0  0  0  0
   -0.0779    6.3036    4.5075 H   0  0  0  0  0  0  0  0  0  0  0  0
   -0.6054    4.6326    4.8547 H   0  0  0  0  0  0  0  0  0  0  0  0
   -0.4960    5.4419    1.1255 H   0  0  0  0  0  0  0  0  0  0  0  0
    0.4848    6.3748    2.2758 H   0  0  0  0  0  0  0  0  0  0  0  0
    0.2663    3.3166    2.2914 H   0  0  0  0  0  0  0  0  0  0  0  0
    1.5263    4.2269    1.4076 H   0  0  0  0  0  0  0  0  0  0  0  0
    2.5180    3.4038    4.9884 H   0  0  0  0  0  0  0  0  0  0  0  0
    1.2788    2.4391    4.1570 H   0  0  0  0  0  0  0  0  0  0  0  0
    3.9484    3.2662    2.8939 H   0  0  0  0  0  0  0  0  0  0  0  0
    3.7015    1.7514    3.8123 H   0  0  0  0  0  0  0  0  0  0  0  0
    4.3025    2.0673    0.7711 H   0  0  0  0  0  0  0  0  0  0  0  0
    4.2758    0.5956    1.7680 H   0  0  0  0  0  0  0  0  0  0  0  0
    2.2550   -0.2012    0.5257 H   0  0  0  0  0  0  0  0  0  0  0  0
    2.2965    1.2446   -0.4871 H   0  0  0  0  0  0  0  0  0  0  0  0
    1.3285   -0.5932   -1.4787 H   0  0  0  0  0  0  0  0  0  0  0  0
    1.7190   -1.0050   -3.1582 H   0  0  0  0  0  0  0  0  0  0  0  0
    1.9955   -2.8887   -0.7557 H   0  0  0  0  0  0  0  0  0  0  0  0
    0.7485   -2.9456   -2.0101 H   0  0  0  0  0  0  0  0  0  0  0  0
    3.9854   -1.4196   -3.8391 H   0  0  0  0  0  0  0  0  0  0  0  0
    5.3019   -1.3044   -2.6377 H   0  0  0  0  0  0  0  0  0  0  0  0
    4.7147   -3.6598   -3.2153 H   0  0  0  0  0  0  0  0  0  0  0  0
    4.4398   -3.3213   -1.4828 H   0  0  0  0  0  0  0  0  0  0  0  0
    0.3277   -4.5248   -3.2980 H   0  0  0  0  0  0  0  0  0  0  0  0
   -0.2208   -6.8926   -3.5585 H   0  0  0  0  0  0  0  0  0  0  0  0
    4.3926   -5.5746   -2.3070 H   0  0  0  0  0  0  0  0  0  0  0  0
    3.8367   -7.9454   -2.5866 H   0  0  0  0  0  0  0  0  0  0  0  0
    0.8667   -8.7283   -6.2348 H   0  0  0  0  0  0  0  0  0  0  0  0
    0.8132   -8.1255   -8.4965 H   0  0  0  0  0  0  0  0  0  0  0  0
    1.5837   -9.6894   -8.8582 H   0  0  0  0  0  0  0  0  0  0  0  0
    2.5887   -8.2686   -8.5052 H   0  0  0  0  0  0  0  0  0  0  0  0
    3.0884  -11.9825   -5.0876 H   0  0  0  0  0  0  0  0  0  0  0  0
    4.8964  -10.6517   -4.1187 H   0  0  0  0  0  0  0  0  0  0  0  0
    4.4856  -12.0469   -3.0955 H   0  0  0  0  0  0  0  0  0  0  0  0
    3.9839  -10.4202   -2.6025 H   0  0  0  0  0  0  0  0  0  0  0  0
    0.8062  -11.9536   -4.0649 H   0  0  0  0  0  0  0  0  0  0  0  0
    1.9774  -13.0076   -3.2589 H   0  0  0  0  0  0  0  0  0  0  0  0
    1.3608  -13.1501   -1.0426 H   0  0  0  0  0  0  0  0  0  0  0  0
    0.7981  -13.9778    2.3567 H   0  0  0  0  0  0  0  0  0  0  0  0
    1.9176  -13.9846    0.9633 H   0  0  0  0  0  0  0  0  0  0  0  0
    0.1414  -13.9650    0.6935 H   0  0  0  0  0  0  0  0  0  0  0  0
    2.6753  -10.0301    2.4640 H   0  0  0  0  0  0  0  0  0  0  0  0
    1.1790  -10.5882    3.2905 H   0  0  0  0  0  0  0  0  0  0  0  0
    1.6618   -8.8656    3.3689 H   0  0  0  0  0  0  0  0  0  0  0  0
    1.1401   -8.2231   -0.6670 H   0  0  0  0  0  0  0  0  0  0  0  0
   -5.5592   10.0770    0.0811 H   0  0  0  0  0  0  0  0  0  0  0  0
   -6.3984   11.5122    0.7000 H   0  0  0  0  0  0  0  0  0  0  0  0
   -4.4142   11.4081   -1.6520 H   0  0  0  0  0  0  0  0  0  0  0  0
   -6.1425   11.7311   -1.7774 H   0  0  0  0  0  0  0  0  0  0  0  0
   -4.2288   14.7152    0.3053 H   0  0  0  0  0  0  0  0  0  0  0  0
  1  2  2  0
  2  3  1  0
  3  4  1  0
  4  5  1  0
  5  6  1  0
  6  7  1  0
  7  8  2  0
  8  9  1  0
  9 10  2  0
 10 11  1  0
 11 12  1  0
 12 13  1  0
 13 14  1  0
 14 15  1  0
 15 16  1  0
 16 17  1  0
 17 18  1  0
 18 19  1  0
 19 20  1  0
 20 21  1  0
 21 22  1  0
 22 23  1  0
 23 24  1  0
 24 25  1  0
 25 26  1  0
 24 27  1  0
 27 28  1  0
 28 29  1  0
 26 29  1  0
 29 30  1  0
 30 31  2  0
 31 32  1  0
 30 33  1  0
 33 34  2  0
 34 35  1  0
 32 35  2  0
 35 36  1  0
 36 37  1  0
 37 38  1  0
 38 39  1  0
 39 40  1  0
 40 41  1  0
 39 42  2  0
 38 43  1  0
 43 44  1  0
 43 45  1  0
 45 46  1  0
 46 47  2  0
 47 48  1  0
 48 49  1  0
 49 50  1  0
 48 51  2  0
 51 52  1  0
 52 53  1  0
 51 54  1  0
 54 55  2  0
 46 55  1  0
 36 55  1  0
 23 56  2  0
  6 57  2  0
 10 57  1  0
 57 58  1  0
  4 58  1  0
 58 59  2  0
  5 60  2  0
  3 61  1  0
 61 62  1  0
  2 63  1  0
 62 64  1  0
 63 64  1  0
 64 65  2  0
  3 66  1  6
  7 67  1  0
  8 68  1  0
  9 69  1  0
 11 70  1  0
 12 71  1  0
 12 72  1  0
 13 73  1  0
 13 74  1  0
 15 75  1  0
 15 76  1  0
 16 77  1  0
 16 78  1  0
 18 79  1  0
 18 80  1  0
 19 81  1  0
 19 82  1  0
 21 83  1  0
 21 84  1  0
 22 85  1  0
 22 86  1  0
 25 87  1  0
 25 88  1  0
 26 89  1  0
 26 90  1  0
 27 91  1  0
 27 92  1  0
 28 93  1  0
 28 94  1  0
 31 95  1  0
 32 96  1  0
 33 97  1  0
 34 98  1  0
 40 99  1  0
 41100  1  0
 41101  1  0
 41102  1  0
 43103  1  6
 44104  1  0
 44105  1  0
 44106  1  0
 45107  1  0
 45108  1  0
 47109  1  0
 50110  1  0
 50111  1  0
 50112  1  0
 53113  1  0
 53114  1  0
 53115  1  0
 54116  1  0
 61117  1  0
 61118  1  0
 62119  1  0
 62120  1  0
 63121  1  0
M  END
>  <ANI_energy(hartree)>  (1) 
-3051.5878736232653

>  <ANI_energy(kcal/mol)>  (1) 
-1914898.8549894616

$$$$
