
     RDKit          3D

121127  0  0  1  0  0  0  0  0999 V2000
   -7.6360   14.3177   -0.0023 O   0  0  0  0  0  0  0  0  0  0  0  0
   -8.3196   14.5683   -0.9792 C   0  0  0  0  0  0  0  0  0  0  0  0
   -8.5386   13.6196   -2.1541 C   0  0  1  0  0  0  0  0  0  0  0  0
   -8.3471   12.2239   -1.7622 N   0  0  0  0  0  0  0  0  0  0  0  0
   -9.1041   11.5667   -0.7792 C   0  0  0  0  0  0  0  0  0  0  0  0
   -8.6234   10.1607   -0.7984 C   0  0  0  0  0  0  0  0  0  0  0  0
   -9.0103    9.0913   -0.0044 C   0  0  0  0  0  0  0  0  0  0  0  0
   -8.3820    7.8697   -0.2453 C   0  0  0  0  0  0  0  0  0  0  0  0
   -7.4068    7.7231   -1.2415 C   0  0  0  0  0  0  0  0  0  0  0  0
   -7.0189    8.8089   -2.0524 C   0  0  0  0  0  0  0  0  0  0  0  0
   -6.0991    8.7036   -3.0551 N   0  0  0  0  0  0  0  0  0  0  0  0
   -5.2808    7.5244   -3.2763 C   0  0  0  0  0  0  0  0  0  0  0  0
   -4.1583    7.3390   -2.2510 C   0  0  0  0  0  0  0  0  0  0  0  0
   -3.4790    6.1272   -2.5749 O   0  0  0  0  0  0  0  0  0  0  0  0
   -2.4652    5.8002   -1.6290 C   0  0  0  0  0  0  0  0  0  0  0  0
   -1.8008    4.5200   -2.1019 C   0  0  0  0  0  0  0  0  0  0  0  0
   -0.8388    4.1568   -1.1151 O   0  0  0  0  0  0  0  0  0  0  0  0
   -0.1696    2.9373   -1.4255 C   0  0  0  0  0  0  0  0  0  0  0  0
    0.6882    2.5806   -0.2251 C   0  0  0  0  0  0  0  0  0  0  0  0
    1.2766    1.3097   -0.4829 O   0  0  0  0  0  0  0  0  0  0  0  0
    1.9393    0.7703    0.6605 C   0  0  0  0  0  0  0  0  0  0  0  0
    2.4180   -0.6242    0.2894 C   0  0  0  0  0  0  0  0  0  0  0  0
    3.0017   -1.3591    1.4901 C   0  0  0  0  0  0  0  0  0  0  0  0
    3.4370   -2.6396    1.3021 N   0  0  0  0  0  0  0  0  0  0  0  0
    3.1855   -3.4528    0.1079 C   0  0  0  0  0  0  0  0  0  0  0  0
    2.0616   -4.4615    0.3890 C   0  0  0  0  0  0  0  0  0  0  0  0
    3.7637   -3.4678    2.4722 C   0  0  0  0  0  0  0  0  0  0  0  0
    2.6155   -4.4542    2.7218 C   0  0  0  0  0  0  0  0  0  0  0  0
    2.3873   -5.3061    1.5498 N   0  0  0  0  0  0  0  0  0  0  0  0
    3.1930   -6.4298    1.3621 C   0  0  0  0  0  0  0  0  0  0  0  0
    2.9967   -7.2646    0.2404 C   0  0  0  0  0  0  0  0  0  0  0  0
    3.7300   -8.4264    0.0773 C   0  0  0  0  0  0  0  0  0  0  0  0
    4.1768   -6.8189    2.2999 C   0  0  0  0  0  0  0  0  0  0  0  0
    4.9012   -7.9834    2.1297 C   0  0  0  0  0  0  0  0  0  0  0  0
    4.6842   -8.8317    1.0296 C   0  0  0  0  0  0  0  0  0  0  0  0
    5.4556  -10.0626    0.8019 C   0  0  0  0  0  0  0  0  0  0  0  0
    5.6083  -10.4396   -0.4634 N   0  0  0  0  0  0  0  0  0  0  0  0
    6.7345   -9.7819   -0.9383 N   0  0  0  0  0  0  0  0  0  0  0  0
    6.6909   -9.5096   -2.3204 C   0  0  0  0  0  0  0  0  0  0  0  0
    5.5034   -9.8292   -2.8833 N   0  0  0  0  0  0  0  0  0  0  0  0
    5.3094   -9.7158   -4.3201 C   0  0  0  0  0  0  0  0  0  0  0  0
    7.6438   -9.0092   -2.9164 O   0  0  0  0  0  0  0  0  0  0  0  0
    8.0385   -9.9484   -0.2691 C   0  0  1  0  0  0  0  0  0  0  0  0
    8.3949   -8.7690    0.6376 C   0  0  0  0  0  0  0  0  0  0  0  0
    8.0849  -11.3222    0.4218 C   0  0  0  0  0  0  0  0  0  0  0  0
    7.3290  -11.4359    1.7161 C   0  0  0  0  0  0  0  0  0  0  0  0
    7.8865  -12.1480    2.7802 C   0  0  0  0  0  0  0  0  0  0  0  0
    7.2328  -12.2783    3.9968 C   0  0  0  0  0  0  0  0  0  0  0  0
    7.7258  -12.9570    5.0635 O   0  0  0  0  0  0  0  0  0  0  0  0
    9.0001  -13.5902    4.8957 C   0  0  0  0  0  0  0  0  0  0  0  0
    5.9590  -11.6750    4.1772 C   0  0  0  0  0  0  0  0  0  0  0  0
    5.3764  -11.8457    5.3910 O   0  0  0  0  0  0  0  0  0  0  0  0
    4.0765  -11.2718    5.5740 C   0  0  0  0  0  0  0  0  0  0  0  0
    5.4016  -10.9615    3.1328 C   0  0  0  0  0  0  0  0  0  0  0  0
    6.0673  -10.8208    1.8960 C   0  0  0  0  0  0  0  0  0  0  0  0
    3.0708   -0.8034    2.5883 O   0  0  0  0  0  0  0  0  0  0  0  0
   -7.6578   10.0433   -1.7916 C   0  0  0  0  0  0  0  0  0  0  0  0
   -7.4717   11.3606   -2.4342 C   0  0  0  0  0  0  0  0  0  0  0  0
   -6.7299   11.6873   -3.3526 O   0  0  0  0  0  0  0  0  0  0  0  0
   -9.9599   12.0801   -0.0851 O   0  0  0  0  0  0  0  0  0  0  0  0
   -9.8880   13.8645   -2.8359 C   0  0  0  0  0  0  0  0  0  0  0  0
   -9.9588   15.3163   -3.2915 C   0  0  0  0  0  0  0  0  0  0  0  0
   -8.9158   15.8123   -1.1249 N   0  0  0  0  0  0  0  0  0  0  0  0
   -9.6932   16.2896   -2.1748 C   0  0  0  0  0  0  0  0  0  0  0  0
  -10.0957   17.4431   -2.1697 O   0  0  0  0  0  0  0  0  0  0  0  0
   -7.7399   13.8305   -2.8778 H   0  0  0  0  0  0  0  0  0  0  0  0
   -9.7669    9.2136    0.7644 H   0  0  0  0  0  0  0  0  0  0  0  0
   -8.6502    7.0021    0.3514 H   0  0  0  0  0  0  0  0  0  0  0  0
   -6.9437    6.7481   -1.3735 H   0  0  0  0  0  0  0  0  0  0  0  0
   -5.8302    9.5739   -3.4959 H   0  0  0  0  0  0  0  0  0  0  0  0
   -5.9158    6.6295   -3.2755 H   0  0  0  0  0  0  0  0  0  0  0  0
   -4.8349    7.6114   -4.2737 H   0  0  0  0  0  0  0  0  0  0  0  0
   -3.4556    8.1892   -2.2864 H   0  0  0  0  0  0  0  0  0  0  0  0
   -4.5734    7.2901   -1.2301 H   0  0  0  0  0  0  0  0  0  0  0  0
   -1.7186    6.6076   -1.5558 H   0  0  0  0  0  0  0  0  0  0  0  0
   -2.8987    5.6405   -0.6287 H   0  0  0  0  0  0  0  0  0  0  0  0
   -2.5595    3.7294   -2.2162 H   0  0  0  0  0  0  0  0  0  0  0  0
   -1.3177    4.6778   -3.0795 H   0  0  0  0  0  0  0  0  0  0  0  0
   -0.8956    2.1297   -1.6103 H   0  0  0  0  0  0  0  0  0  0  0  0
    0.4541    3.0517   -2.3264 H   0  0  0  0  0  0  0  0  0  0  0  0
    1.4624    3.3482   -0.0657 H   0  0  0  0  0  0  0  0  0  0  0  0
    0.0539    2.5404    0.6744 H   0  0  0  0  0  0  0  0  0  0  0  0
    2.7852    1.4103    0.9565 H   0  0  0  0  0  0  0  0  0  0  0  0
    1.2463    0.7177    1.5137 H   0  0  0  0  0  0  0  0  0  0  0  0
    1.5661   -1.1910   -0.1103 H   0  0  0  0  0  0  0  0  0  0  0  0
    3.1635   -0.5581   -0.5158 H   0  0  0  0  0  0  0  0  0  0  0  0
    2.9408   -2.8249   -0.7523 H   0  0  0  0  0  0  0  0  0  0  0  0
    4.1052   -4.0064   -0.1304 H   0  0  0  0  0  0  0  0  0  0  0  0
    1.1380   -3.9142    0.6275 H   0  0  0  0  0  0  0  0  0  0  0  0
    1.8735   -5.0640   -0.5011 H   0  0  0  0  0  0  0  0  0  0  0  0
    4.6874   -4.0229    2.2556 H   0  0  0  0  0  0  0  0  0  0  0  0
    3.9224   -2.8168    3.3351 H   0  0  0  0  0  0  0  0  0  0  0  0
    2.7938   -5.0645    3.6140 H   0  0  0  0  0  0  0  0  0  0  0  0
    1.6944   -3.8792    2.8979 H   0  0  0  0  0  0  0  0  0  0  0  0
    2.2448   -7.0106   -0.5010 H   0  0  0  0  0  0  0  0  0  0  0  0
    3.5516   -9.0509   -0.7947 H   0  0  0  0  0  0  0  0  0  0  0  0
    4.3907   -6.2006    3.1630 H   0  0  0  0  0  0  0  0  0  0  0  0
    5.6538   -8.2484    2.8686 H   0  0  0  0  0  0  0  0  0  0  0  0
    4.9086  -10.4455   -2.3443 H   0  0  0  0  0  0  0  0  0  0  0  0
    5.5855   -8.7119   -4.6559 H   0  0  0  0  0  0  0  0  0  0  0  0
    4.2504   -9.8740   -4.5395 H   0  0  0  0  0  0  0  0  0  0  0  0
    5.9051  -10.4463   -4.8853 H   0  0  0  0  0  0  0  0  0  0  0  0
    8.7749   -9.9619   -1.0848 H   0  0  0  0  0  0  0  0  0  0  0  0
    8.4744   -7.8486    0.0484 H   0  0  0  0  0  0  0  0  0  0  0  0
    9.3645   -8.9695    1.1060 H   0  0  0  0  0  0  0  0  0  0  0  0
    7.6587   -8.6067    1.4358 H   0  0  0  0  0  0  0  0  0  0  0  0
    7.6953  -12.0524   -0.3013 H   0  0  0  0  0  0  0  0  0  0  0  0
    9.1329  -11.5769    0.6103 H   0  0  0  0  0  0  0  0  0  0  0  0
    8.8627  -12.6034    2.6450 H   0  0  0  0  0  0  0  0  0  0  0  0
    9.2144  -14.0804    5.8489 H   0  0  0  0  0  0  0  0  0  0  0  0
    9.7839  -12.8525    4.6780 H   0  0  0  0  0  0  0  0  0  0  0  0
    8.9647  -14.3429    4.0969 H   0  0  0  0  0  0  0  0  0  0  0  0
    3.7801  -11.5248    6.5954 H   0  0  0  0  0  0  0  0  0  0  0  0
    3.3533  -11.6986    4.8658 H   0  0  0  0  0  0  0  0  0  0  0  0
    4.1092  -10.1794    5.4611 H   0  0  0  0  0  0  0  0  0  0  0  0
    4.4354  -10.4786    3.2487 H   0  0  0  0  0  0  0  0  0  0  0  0
   -9.9673   13.1905   -3.6946 H   0  0  0  0  0  0  0  0  0  0  0  0
  -10.7046   13.6323   -2.1429 H   0  0  0  0  0  0  0  0  0  0  0  0
   -9.2072   15.5082   -4.0713 H   0  0  0  0  0  0  0  0  0  0  0  0
  -10.9346   15.5569   -3.7228 H   0  0  0  0  0  0  0  0  0  0  0  0
   -8.7435   16.4705   -0.3694 H   0  0  0  0  0  0  0  0  0  0  0  0
  1  2  2  0
  2  3  1  0
  3  4  1  0
  4  5  1  0
  5  6  1  0
  6  7  2  0
  7  8  1  0
  8  9  2  0
  9 10  1  0
 10 11  1  0
 11 12  1  0
 12 13  1  0
 13 14  1  0
 14 15  1  0
 15 16  1  0
 16 17  1  0
 17 18  1  0
 18 19  1  0
 19 20  1  0
 20 21  1  0
 21 22  1  0
 22 23  1  0
 23 24  1  0
 24 25  1  0
 25 26  1  0
 24 27  1  0
 27 28  1  0
 28 29  1  0
 26 29  1  0
 29 30  1  0
 30 31  2  0
 31 32  1  0
 30 33  1  0
 33 34  2  0
 32 35  2  0
 34 35  1  0
 35 36  1  0
 36 37  1  0
 37 38  1  0
 38 39  1  0
 39 40  1  0
 40 41  1  0
 39 42  2  0
 38 43  1  0
 43 44  1  0
 43 45  1  0
 45 46  1  0
 46 47  2  0
 47 48  1  0
 48 49  1  0
 49 50  1  0
 48 51  2  0
 51 52  1  0
 52 53  1  0
 51 54  1  0
 54 55  2  0
 46 55  1  0
 36 55  1  0
 23 56  2  0
 10 57  2  0
  6 57  1  0
 57 58  1  0
  4 58  1  0
 58 59  2  0
  5 60  2  0
  3 61  1  0
 61 62  1  0
  2 63  1  0
 63 64  1  0
 62 64  1  0
 64 65  2  0
  3 66  1  6
  7 67  1  0
  8 68  1  0
  9 69  1  0
 11 70  1  0
 12 71  1  0
 12 72  1  0
 13 73  1  0
 13 74  1  0
 15 75  1  0
 15 76  1  0
 16 77  1  0
 16 78  1  0
 18 79  1  0
 18 80  1  0
 19 81  1  0
 19 82  1  0
 21 83  1  0
 21 84  1  0
 22 85  1  0
 22 86  1  0
 25 87  1  0
 25 88  1  0
 26 89  1  0
 26 90  1  0
 27 91  1  0
 27 92  1  0
 28 93  1  0
 28 94  1  0
 31 95  1  0
 32 96  1  0
 33 97  1  0
 34 98  1  0
 40 99  1  0
 41100  1  0
 41101  1  0
 41102  1  0
 43103  1  6
 44104  1  0
 44105  1  0
 44106  1  0
 45107  1  0
 45108  1  0
 47109  1  0
 50110  1  0
 50111  1  0
 50112  1  0
 53113  1  0
 53114  1  0
 53115  1  0
 54116  1  0
 61117  1  0
 61118  1  0
 62119  1  0
 62120  1  0
 63121  1  0
M  END
>  <ANI_energy(hartree)>  (1) 
-3051.599001810445

>  <ANI_energy(kcal/mol)>  (1) 
-1914905.8380270705

$$$$

     RDKit          3D

121127  0  0  1  0  0  0  0  0999 V2000
   -7.7520   14.8011   -1.1477 O   0  0  0  0  0  0  0  0  0  0  0  0
   -8.1559   14.9744   -2.2842 C   0  0  0  0  0  0  0  0  0  0  0  0
   -8.1722   13.9037   -3.3719 C   0  0  1  0  0  0  0  0  0  0  0  0
   -8.2276   12.5570   -2.8021 N   0  0  0  0  0  0  0  0  0  0  0  0
   -9.2573   12.0892   -1.9702 C   0  0  0  0  0  0  0  0  0  0  0  0
   -8.9257   10.6634   -1.7110 C   0  0  0  0  0  0  0  0  0  0  0  0
   -9.5964    9.7365   -0.9267 C   0  0  0  0  0  0  0  0  0  0  0  0
   -9.0535    8.4533   -0.8662 C   0  0  0  0  0  0  0  0  0  0  0  0
   -7.8883    8.1100   -1.5648 C   0  0  0  0  0  0  0  0  0  0  0  0
   -7.2097    9.0507   -2.3661 C   0  0  0  0  0  0  0  0  0  0  0  0
   -6.0882    8.7513   -3.0798 N   0  0  0  0  0  0  0  0  0  0  0  0
   -5.4102    7.4698   -3.0225 C   0  0  0  0  0  0  0  0  0  0  0  0
   -4.5815    7.2520   -1.7531 C   0  0  0  0  0  0  0  0  0  0  0  0
   -3.9987    5.9546   -1.8534 O   0  0  0  0  0  0  0  0  0  0  0  0
   -3.1981    5.6141   -0.7257 C   0  0  0  0  0  0  0  0  0  0  0  0
   -2.5446    4.2808   -1.0395 C   0  0  0  0  0  0  0  0  0  0  0  0
   -1.7394    3.9200    0.0797 O   0  0  0  0  0  0  0  0  0  0  0  0
   -0.9774    2.7423   -0.1705 C   0  0  0  0  0  0  0  0  0  0  0  0
   -0.2046    2.4107    1.0927 C   0  0  0  0  0  0  0  0  0  0  0  0
    0.5997    1.2761    0.7895 O   0  0  0  0  0  0  0  0  0  0  0  0
    1.3509    0.8009    1.9055 C   0  0  0  0  0  0  0  0  0  0  0  0
    2.2612   -0.2975    1.3802 C   0  0  0  0  0  0  0  0  0  0  0  0
    3.1120   -0.9262    2.4748 C   0  0  0  0  0  0  0  0  0  0  0  0
    4.0604   -1.8239    2.0864 N   0  0  0  0  0  0  0  0  0  0  0  0
    4.2573   -2.3588    0.7411 C   0  0  0  0  0  0  0  0  0  0  0  0
    3.9454   -3.8517    0.7041 C   0  0  0  0  0  0  0  0  0  0  0  0
    4.8708   -2.5300    3.0794 C   0  0  0  0  0  0  0  0  0  0  0  0
    4.5332   -4.0143    3.0590 C   0  0  0  0  0  0  0  0  0  0  0  0
    4.7473   -4.5668    1.7078 N   0  0  0  0  0  0  0  0  0  0  0  0
    4.8489   -5.9563    1.5944 C   0  0  0  0  0  0  0  0  0  0  0  0
    4.1448   -6.6960    0.6231 C   0  0  0  0  0  0  0  0  0  0  0  0
    4.3179   -8.0670    0.5152 C   0  0  0  0  0  0  0  0  0  0  0  0
    5.7281   -6.6567    2.4473 C   0  0  0  0  0  0  0  0  0  0  0  0
    5.8950   -8.0220    2.3318 C   0  0  0  0  0  0  0  0  0  0  0  0
    5.1831   -8.7676    1.3753 C   0  0  0  0  0  0  0  0  0  0  0  0
    5.3709  -10.2139    1.1811 C   0  0  0  0  0  0  0  0  0  0  0  0
    5.1862  -10.6704   -0.0544 N   0  0  0  0  0  0  0  0  0  0  0  0
    6.4083  -10.5482   -0.7014 N   0  0  0  0  0  0  0  0  0  0  0  0
    6.2995  -10.2956   -2.0823 C   0  0  0  0  0  0  0  0  0  0  0  0
    5.0220  -10.1120   -2.4858 N   0  0  0  0  0  0  0  0  0  0  0  0
    4.7075   -9.9311   -3.8940 C   0  0  0  0  0  0  0  0  0  0  0  0
    7.2886  -10.2299   -2.8109 O   0  0  0  0  0  0  0  0  0  0  0  0
    7.6112  -11.2208   -0.1773 C   0  0  1  0  0  0  0  0  0  0  0  0
    8.5469  -10.2635    0.5633 C   0  0  0  0  0  0  0  0  0  0  0  0
    7.1903  -12.4618    0.6278 C   0  0  0  0  0  0  0  0  0  0  0  0
    6.6399  -12.2029    2.0020 C   0  0  0  0  0  0  0  0  0  0  0  0
    6.9898  -13.0520    3.0544 C   0  0  0  0  0  0  0  0  0  0  0  0
    6.5084  -12.8614    4.3413 C   0  0  0  0  0  0  0  0  0  0  0  0
    6.8086  -13.6580    5.3982 O   0  0  0  0  0  0  0  0  0  0  0  0
    7.6767  -14.7702    5.1466 C   0  0  0  0  0  0  0  0  0  0  0  0
    5.6416  -11.7675    4.6101 C   0  0  0  0  0  0  0  0  0  0  0  0
    5.2080  -11.6416    5.8904 O   0  0  0  0  0  0  0  0  0  0  0  0
    4.3004  -10.5672    6.1633 C   0  0  0  0  0  0  0  0  0  0  0  0
    5.3003  -10.9125    3.5786 C   0  0  0  0  0  0  0  0  0  0  0  0
    5.7805  -11.1093    2.2655 C   0  0  0  0  0  0  0  0  0  0  0  0
    2.9383   -0.6295    3.6593 O   0  0  0  0  0  0  0  0  0  0  0  0
   -7.7666   10.3503   -2.4114 C   0  0  0  0  0  0  0  0  0  0  0  0
   -7.3071   11.5541   -3.1349 C   0  0  0  0  0  0  0  0  0  0  0  0
   -6.3436   11.7032   -3.8766 O   0  0  0  0  0  0  0  0  0  0  0  0
  -10.2000   12.7463   -1.5737 O   0  0  0  0  0  0  0  0  0  0  0  0
   -9.2746   14.1576   -4.4048 C   0  0  0  0  0  0  0  0  0  0  0  0
   -9.0899   15.5470   -5.0020 C   0  0  0  0  0  0  0  0  0  0  0  0
   -8.5822   16.2275   -2.6996 N   0  0  0  0  0  0  0  0  0  0  0  0
   -9.0283   16.6260   -3.9552 C   0  0  0  0  0  0  0  0  0  0  0  0
   -9.3153   17.7947   -4.1661 O   0  0  0  0  0  0  0  0  0  0  0  0
   -7.2002   13.9629   -3.8795 H   0  0  0  0  0  0  0  0  0  0  0  0
  -10.4997   10.0097   -0.3907 H   0  0  0  0  0  0  0  0  0  0  0  0
   -9.5421    7.6918   -0.2643 H   0  0  0  0  0  0  0  0  0  0  0  0
   -7.5078    7.0958   -1.4722 H   0  0  0  0  0  0  0  0  0  0  0  0
   -5.6484    9.5246   -3.5612 H   0  0  0  0  0  0  0  0  0  0  0  0
   -6.1421    6.6563   -3.1109 H   0  0  0  0  0  0  0  0  0  0  0  0
   -4.7405    7.4078   -3.8877 H   0  0  0  0  0  0  0  0  0  0  0  0
   -3.7915    8.0175   -1.6693 H   0  0  0  0  0  0  0  0  0  0  0  0
   -5.2170    7.3260   -0.8542 H   0  0  0  0  0  0  0  0  0  0  0  0
   -2.4225    6.3766   -0.5474 H   0  0  0  0  0  0  0  0  0  0  0  0
   -3.8127    5.5282    0.1846 H   0  0  0  0  0  0  0  0  0  0  0  0
   -3.3164    3.5172   -1.2257 H   0  0  0  0  0  0  0  0  0  0  0  0
   -1.9292    4.3749   -1.9485 H   0  0  0  0  0  0  0  0  0  0  0  0
   -1.6353    1.9001   -0.4383 H   0  0  0  0  0  0  0  0  0  0  0  0
   -0.2730    2.9048   -1.0013 H   0  0  0  0  0  0  0  0  0  0  0  0
    0.4210    3.2683    1.3876 H   0  0  0  0  0  0  0  0  0  0  0  0
   -0.9013    2.1931    1.9184 H   0  0  0  0  0  0  0  0  0  0  0  0
    1.9432    1.6161    2.3495 H   0  0  0  0  0  0  0  0  0  0  0  0
    0.6783    0.4135    2.6858 H   0  0  0  0  0  0  0  0  0  0  0  0
    1.6409   -1.0756    0.9133 H   0  0  0  0  0  0  0  0  0  0  0  0
    2.9018    0.1182    0.5911 H   0  0  0  0  0  0  0  0  0  0  0  0
    3.6421   -1.8339    0.0078 H   0  0  0  0  0  0  0  0  0  0  0  0
    5.3116   -2.2183    0.4639 H   0  0  0  0  0  0  0  0  0  0  0  0
    2.8650   -4.0108    0.8783 H   0  0  0  0  0  0  0  0  0  0  0  0
    4.1931   -4.2232   -0.2955 H   0  0  0  0  0  0  0  0  0  0  0  0
    5.9330   -2.4007    2.8260 H   0  0  0  0  0  0  0  0  0  0  0  0
    4.6827   -2.0997    4.0664 H   0  0  0  0  0  0  0  0  0  0  0  0
    5.1631   -4.5320    3.7862 H   0  0  0  0  0  0  0  0  0  0  0  0
    3.4827   -4.1604    3.3741 H   0  0  0  0  0  0  0  0  0  0  0  0
    3.4475   -6.2013   -0.0445 H   0  0  0  0  0  0  0  0  0  0  0  0
    3.7614   -8.6185   -0.2390 H   0  0  0  0  0  0  0  0  0  0  0  0
    6.3011   -6.1108    3.1898 H   0  0  0  0  0  0  0  0  0  0  0  0
    6.5882   -8.5266    3.0009 H   0  0  0  0  0  0  0  0  0  0  0  0
    4.3045  -10.4313   -1.8478 H   0  0  0  0  0  0  0  0  0  0  0  0
    5.3130   -9.1202   -4.3099 H   0  0  0  0  0  0  0  0  0  0  0  0
    3.6534   -9.6551   -3.9803 H   0  0  0  0  0  0  0  0  0  0  0  0
    4.8902  -10.8385   -4.4864 H   0  0  0  0  0  0  0  0  0  0  0  0
    8.1511  -11.5735   -1.0673 H   0  0  0  0  0  0  0  0  0  0  0  0
    8.9531   -9.5193   -0.1310 H   0  0  0  0  0  0  0  0  0  0  0  0
    9.3784  -10.8405    0.9820 H   0  0  0  0  0  0  0  0  0  0  0  0
    8.0478   -9.7345    1.3857 H   0  0  0  0  0  0  0  0  0  0  0  0
    6.4427  -12.9920    0.0211 H   0  0  0  0  0  0  0  0  0  0  0  0
    8.0584  -13.1222    0.7213 H   0  0  0  0  0  0  0  0  0  0  0  0
    7.6634  -13.8790    2.8516 H   0  0  0  0  0  0  0  0  0  0  0  0
    8.6589  -14.4337    4.7893 H   0  0  0  0  0  0  0  0  0  0  0  0
    7.2327  -15.4611    4.4177 H   0  0  0  0  0  0  0  0  0  0  0  0
    7.7929  -15.2782    6.1075 H   0  0  0  0  0  0  0  0  0  0  0  0
    4.0581  -10.6443    7.2264 H   0  0  0  0  0  0  0  0  0  0  0  0
    3.3820  -10.6667    5.5688 H   0  0  0  0  0  0  0  0  0  0  0  0
    4.7703   -9.5941    5.9640 H   0  0  0  0  0  0  0  0  0  0  0  0
    4.6523  -10.0602    3.7615 H   0  0  0  0  0  0  0  0  0  0  0  0
   -9.1960   13.3949   -5.1860 H   0  0  0  0  0  0  0  0  0  0  0  0
  -10.2586   14.0635   -3.9313 H   0  0  0  0  0  0  0  0  0  0  0  0
   -8.1487   15.5963   -5.5693 H   0  0  0  0  0  0  0  0  0  0  0  0
   -9.8954   15.7976   -5.6979 H   0  0  0  0  0  0  0  0  0  0  0  0
   -8.5421   16.9586   -1.9941 H   0  0  0  0  0  0  0  0  0  0  0  0
  1  2  2  0
  2  3  1  0
  3  4  1  0
  4  5  1  0
  5  6  1  0
  6  7  1  0
  7  8  2  0
  8  9  1  0
  9 10  2  0
 10 11  1  0
 11 12  1  0
 12 13  1  0
 13 14  1  0
 14 15  1  0
 15 16  1  0
 16 17  1  0
 17 18  1  0
 18 19  1  0
 19 20  1  0
 20 21  1  0
 21 22  1  0
 22 23  1  0
 23 24  1  0
 24 25  1  0
 25 26  1  0
 24 27  1  0
 27 28  1  0
 26 29  1  0
 28 29  1  0
 29 30  1  0
 30 31  2  0
 31 32  1  0
 30 33  1  0
 33 34  2  0
 32 35  2  0
 34 35  1  0
 35 36  1  0
 36 37  1  0
 37 38  1  0
 38 39  1  0
 39 40  1  0
 40 41  1  0
 39 42  2  0
 38 43  1  0
 43 44  1  0
 43 45  1  0
 45 46  1  0
 46 47  2  0
 47 48  1  0
 48 49  1  0
 49 50  1  0
 48 51  2  0
 51 52  1  0
 52 53  1  0
 51 54  1  0
 54 55  2  0
 46 55  1  0
 36 55  1  0
 23 56  2  0
  6 57  2  0
 10 57  1  0
 57 58  1  0
  4 58  1  0
 58 59  2  0
  5 60  2  0
  3 61  1  0
 61 62  1  0
  2 63  1  0
 62 64  1  0
 63 64  1  0
 64 65  2  0
  3 66  1  6
  7 67  1  0
  8 68  1  0
  9 69  1  0
 11 70  1  0
 12 71  1  0
 12 72  1  0
 13 73  1  0
 13 74  1  0
 15 75  1  0
 15 76  1  0
 16 77  1  0
 16 78  1  0
 18 79  1  0
 18 80  1  0
 19 81  1  0
 19 82  1  0
 21 83  1  0
 21 84  1  0
 22 85  1  0
 22 86  1  0
 25 87  1  0
 25 88  1  0
 26 89  1  0
 26 90  1  0
 27 91  1  0
 27 92  1  0
 28 93  1  0
 28 94  1  0
 31 95  1  0
 32 96  1  0
 33 97  1  0
 34 98  1  0
 40 99  1  0
 41100  1  0
 41101  1  0
 41102  1  0
 43103  1  6
 44104  1  0
 44105  1  0
 44106  1  0
 45107  1  0
 45108  1  0
 47109  1  0
 50110  1  0
 50111  1  0
 50112  1  0
 53113  1  0
 53114  1  0
 53115  1  0
 54116  1  0
 61117  1  0
 61118  1  0
 62119  1  0
 62120  1  0
 63121  1  0
M  END
>  <ANI_energy(hartree)>  (1) 
-3051.5988682960406

>  <ANI_energy(kcal/mol)>  (1) 
-1914905.7542455802

$$$$

     RDKit          3D

121127  0  0  1  0  0  0  0  0999 V2000
   -8.3373   13.7706   -1.7269 O   0  0  0  0  0  0  0  0  0  0  0  0
   -8.4903   14.0515   -2.9026 C   0  0  0  0  0  0  0  0  0  0  0  0
   -8.1443   13.1305   -4.0697 C   0  0  1  0  0  0  0  0  0  0  0  0
   -8.1500   11.7242   -3.6670 N   0  0  0  0  0  0  0  0  0  0  0  0
   -9.2717   11.0505   -3.1593 C   0  0  0  0  0  0  0  0  0  0  0  0
   -8.8247    9.6453   -2.9716 C   0  0  0  0  0  0  0  0  0  0  0  0
   -9.5325    8.5617   -2.4732 C   0  0  0  0  0  0  0  0  0  0  0  0
   -8.8552    7.3444   -2.4063 C   0  0  0  0  0  0  0  0  0  0  0  0
   -7.5240    7.2156   -2.8244 C   0  0  0  0  0  0  0  0  0  0  0  0
   -6.8076    8.3150   -3.3402 C   0  0  0  0  0  0  0  0  0  0  0  0
   -5.5228    8.2227   -3.7838 N   0  0  0  0  0  0  0  0  0  0  0  0
   -4.7231    7.0142   -3.7107 C   0  0  0  0  0  0  0  0  0  0  0  0
   -4.1483    6.7232   -2.3203 C   0  0  0  0  0  0  0  0  0  0  0  0
   -3.4085    5.5077   -2.4174 O   0  0  0  0  0  0  0  0  0  0  0  0
   -2.6813    5.1993   -1.2321 C   0  0  0  0  0  0  0  0  0  0  0  0
   -1.9250    3.9047   -1.5234 C   0  0  0  0  0  0  0  0  0  0  0  0
   -1.1567    3.4597   -0.4043 O   0  0  0  0  0  0  0  0  0  0  0  0
    0.1144    4.1101   -0.3082 C   0  0  0  0  0  0  0  0  0  0  0  0
    0.8458    3.5920    0.9070 C   0  0  0  0  0  0  0  0  0  0  0  0
    1.2343    2.2372    0.6828 O   0  0  0  0  0  0  0  0  0  0  0  0
    1.9014    1.6677    1.8083 C   0  0  0  0  0  0  0  0  0  0  0  0
    2.4914    0.3383    1.3627 C   0  0  0  0  0  0  0  0  0  0  0  0
    3.2722   -0.3399    2.4831 C   0  0  0  0  0  0  0  0  0  0  0  0
    3.9894   -1.4521    2.1652 N   0  0  0  0  0  0  0  0  0  0  0  0
    4.0308   -2.1307    0.8711 C   0  0  0  0  0  0  0  0  0  0  0  0
    3.6373   -3.5983    1.0222 C   0  0  0  0  0  0  0  0  0  0  0  0
    4.8298   -2.1074    3.1687 C   0  0  0  0  0  0  0  0  0  0  0  0
    4.4036   -3.5583    3.3251 C   0  0  0  0  0  0  0  0  0  0  0  0
    4.4859   -4.2508    2.0281 N   0  0  0  0  0  0  0  0  0  0  0  0
    4.5743   -5.6429    2.0379 C   0  0  0  0  0  0  0  0  0  0  0  0
    3.7945   -6.4646    1.1992 C   0  0  0  0  0  0  0  0  0  0  0  0
    3.9611   -7.8409    1.2059 C   0  0  0  0  0  0  0  0  0  0  0  0
    5.5204   -6.2660    2.8801 C   0  0  0  0  0  0  0  0  0  0  0  0
    5.6795   -7.6367    2.8799 C   0  0  0  0  0  0  0  0  0  0  0  0
    4.8958   -8.4637    2.0545 C   0  0  0  0  0  0  0  0  0  0  0  0
    5.0751   -9.9221    1.9824 C   0  0  0  0  0  0  0  0  0  0  0  0
    4.7733  -10.4965    0.8227 N   0  0  0  0  0  0  0  0  0  0  0  0
    5.9166  -10.4316    0.0383 N   0  0  0  0  0  0  0  0  0  0  0  0
    5.6495  -10.3672   -1.3442 C   0  0  0  0  0  0  0  0  0  0  0  0
    4.3314  -10.2473   -1.6215 N   0  0  0  0  0  0  0  0  0  0  0  0
    3.8591  -10.2647   -2.9968 C   0  0  0  0  0  0  0  0  0  0  0  0
    6.5484  -10.3934   -2.1838 O   0  0  0  0  0  0  0  0  0  0  0  0
    7.1868  -11.0176    0.5069 C   0  0  1  0  0  0  0  0  0  0  0  0
    8.1554   -9.9720    1.0638 C   0  0  0  0  0  0  0  0  0  0  0  0
    6.8881  -12.1864    1.4604 C   0  0  0  0  0  0  0  0  0  0  0  0
    6.4516  -11.8158    2.8509 C   0  0  0  0  0  0  0  0  0  0  0  0
    6.9046  -12.5716    3.9349 C   0  0  0  0  0  0  0  0  0  0  0  0
    6.5365  -12.2759    5.2391 C   0  0  0  0  0  0  0  0  0  0  0  0
    6.9401  -12.9784    6.3278 O   0  0  0  0  0  0  0  0  0  0  0  0
    7.7915  -14.1066    6.0919 C   0  0  0  0  0  0  0  0  0  0  0  0
    5.6841  -11.1675    5.4930 C   0  0  0  0  0  0  0  0  0  0  0  0
    5.3687  -10.9370    6.7929 O   0  0  0  0  0  0  0  0  0  0  0  0
    4.4994   -9.8314    7.0636 C   0  0  0  0  0  0  0  0  0  0  0  0
    5.2373  -10.4064    4.4286 C   0  0  0  0  0  0  0  0  0  0  0  0
    5.5995  -10.7130    3.0990 C   0  0  0  0  0  0  0  0  0  0  0  0
    3.2447    0.1134    3.6305 O   0  0  0  0  0  0  0  0  0  0  0  0
   -7.5037    9.5460   -3.3926 C   0  0  0  0  0  0  0  0  0  0  0  0
   -7.0508   10.8746   -3.8553 C   0  0  0  0  0  0  0  0  0  0  0  0
   -5.9673   11.2192   -4.3105 O   0  0  0  0  0  0  0  0  0  0  0  0
  -10.3568   11.5504   -2.9347 O   0  0  0  0  0  0  0  0  0  0  0  0
   -9.0298   13.4059   -5.2889 C   0  0  0  0  0  0  0  0  0  0  0  0
   -8.8801   14.8678   -5.6905 C   0  0  0  0  0  0  0  0  0  0  0  0
   -8.9455   15.3075   -3.2760 N   0  0  0  0  0  0  0  0  0  0  0  0
   -9.1498   15.8166   -4.5538 C   0  0  0  0  0  0  0  0  0  0  0  0
   -9.5003   16.9769   -4.7072 O   0  0  0  0  0  0  0  0  0  0  0  0
   -7.1029   13.3490   -4.3408 H   0  0  0  0  0  0  0  0  0  0  0  0
  -10.5645    8.6703   -2.1551 H   0  0  0  0  0  0  0  0  0  0  0  0
   -9.3681    6.4669   -2.0216 H   0  0  0  0  0  0  0  0  0  0  0  0
   -7.0440    6.2435   -2.7391 H   0  0  0  0  0  0  0  0  0  0  0  0
   -5.0870    9.0894   -4.0698 H   0  0  0  0  0  0  0  0  0  0  0  0
   -5.3172    6.1509   -4.0371 H   0  0  0  0  0  0  0  0  0  0  0  0
   -3.8893    7.1242   -4.4133 H   0  0  0  0  0  0  0  0  0  0  0  0
   -3.4888    7.5462   -1.9972 H   0  0  0  0  0  0  0  0  0  0  0  0
   -4.9568    6.6282   -1.5743 H   0  0  0  0  0  0  0  0  0  0  0  0
   -1.9829    6.0172   -0.9855 H   0  0  0  0  0  0  0  0  0  0  0  0
   -3.3641    5.0617   -0.3763 H   0  0  0  0  0  0  0  0  0  0  0  0
   -2.6516    3.1135   -1.7481 H   0  0  0  0  0  0  0  0  0  0  0  0
   -1.2906    4.0428   -2.4146 H   0  0  0  0  0  0  0  0  0  0  0  0
    0.7175    3.9137   -1.2096 H   0  0  0  0  0  0  0  0  0  0  0  0
   -0.0118    5.1992   -0.2094 H   0  0  0  0  0  0  0  0  0  0  0  0
    1.7395    4.2139    1.0816 H   0  0  0  0  0  0  0  0  0  0  0  0
    0.1945    3.6699    1.7937 H   0  0  0  0  0  0  0  0  0  0  0  0
    2.7007    2.3366    2.1638 H   0  0  0  0  0  0  0  0  0  0  0  0
    1.1959    1.5199    2.6409 H   0  0  0  0  0  0  0  0  0  0  0  0
    1.6818   -0.3267    1.0276 H   0  0  0  0  0  0  0  0  0  0  0  0
    3.1450    0.5099    0.4972 H   0  0  0  0  0  0  0  0  0  0  0  0
    3.3671   -1.6483    0.1511 H   0  0  0  0  0  0  0  0  0  0  0  0
    5.0581   -2.0852    0.4799 H   0  0  0  0  0  0  0  0  0  0  0  0
    2.5694   -3.6676    1.3021 H   0  0  0  0  0  0  0  0  0  0  0  0
    3.7738   -4.0864    0.0515 H   0  0  0  0  0  0  0  0  0  0  0  0
    5.8795   -2.0712    2.8391 H   0  0  0  0  0  0  0  0  0  0  0  0
    4.7368   -1.5708    4.1161 H   0  0  0  0  0  0  0  0  0  0  0  0
    5.0492   -4.0432    4.0611 H   0  0  0  0  0  0  0  0  0  0  0  0
    3.3708   -3.5989    3.7202 H   0  0  0  0  0  0  0  0  0  0  0  0
    3.0447   -6.0261    0.5487 H   0  0  0  0  0  0  0  0  0  0  0  0
    3.3480   -8.4571    0.5523 H   0  0  0  0  0  0  0  0  0  0  0  0
    6.1522   -5.6550    3.5173 H   0  0  0  0  0  0  0  0  0  0  0  0
    6.4258   -8.0807    3.5351 H   0  0  0  0  0  0  0  0  0  0  0  0
    3.6958  -10.4796   -0.8691 H   0  0  0  0  0  0  0  0  0  0  0  0
    4.0072  -11.2403   -3.4807 H   0  0  0  0  0  0  0  0  0  0  0  0
    4.3864   -9.5053   -3.5823 H   0  0  0  0  0  0  0  0  0  0  0  0
    2.7926  -10.0250   -2.9999 H   0  0  0  0  0  0  0  0  0  0  0  0
    7.6531  -11.4382   -0.3948 H   0  0  0  0  0  0  0  0  0  0  0  0
    8.4521   -9.2708    0.2756 H   0  0  0  0  0  0  0  0  0  0  0  0
    9.0513  -10.4856    1.4288 H   0  0  0  0  0  0  0  0  0  0  0  0
    7.7319   -9.3945    1.8956 H   0  0  0  0  0  0  0  0  0  0  0  0
    6.1155  -12.8016    0.9777 H   0  0  0  0  0  0  0  0  0  0  0  0
    7.7885  -12.8050    1.5364 H   0  0  0  0  0  0  0  0  0  0  0  0
    7.5672  -13.4103    3.7434 H   0  0  0  0  0  0  0  0  0  0  0  0
    8.7351  -13.7979    5.6227 H   0  0  0  0  0  0  0  0  0  0  0  0
    7.2900  -14.8549    5.4638 H   0  0  0  0  0  0  0  0  0  0  0  0
    7.9960  -14.5345    7.0768 H   0  0  0  0  0  0  0  0  0  0  0  0
    4.9517   -8.8863    6.7330 H   0  0  0  0  0  0  0  0  0  0  0  0
    4.3686   -9.8140    8.1489 H   0  0  0  0  0  0  0  0  0  0  0  0
    3.5236   -9.9682    6.5779 H   0  0  0  0  0  0  0  0  0  0  0  0
    4.5950   -9.5466    4.5964 H   0  0  0  0  0  0  0  0  0  0  0  0
   -8.7073   12.7526   -6.1057 H   0  0  0  0  0  0  0  0  0  0  0  0
  -10.0739   13.1696   -5.0549 H   0  0  0  0  0  0  0  0  0  0  0  0
   -7.8548   15.0649   -6.0363 H   0  0  0  0  0  0  0  0  0  0  0  0
   -9.5496   15.1301   -6.5143 H   0  0  0  0  0  0  0  0  0  0  0  0
   -9.1359   15.9487   -2.5102 H   0  0  0  0  0  0  0  0  0  0  0  0
  1  2  2  0
  2  3  1  0
  3  4  1  0
  4  5  1  0
  5  6  1  0
  6  7  2  0
  7  8  1  0
  8  9  2  0
  9 10  1  0
 10 11  1  0
 11 12  1  0
 12 13  1  0
 13 14  1  0
 14 15  1  0
 15 16  1  0
 16 17  1  0
 17 18  1  0
 18 19  1  0
 19 20  1  0
 20 21  1  0
 21 22  1  0
 22 23  1  0
 23 24  1  0
 24 25  1  0
 25 26  1  0
 24 27  1  0
 27 28  1  0
 28 29  1  0
 26 29  1  0
 29 30  1  0
 30 31  2  0
 31 32  1  0
 30 33  1  0
 33 34  2  0
 32 35  2  0
 34 35  1  0
 35 36  1  0
 36 37  1  0
 37 38  1  0
 38 39  1  0
 39 40  1  0
 40 41  1  0
 39 42  2  0
 38 43  1  0
 43 44  1  0
 43 45  1  0
 45 46  1  0
 46 47  2  0
 47 48  1  0
 48 49  1  0
 49 50  1  0
 48 51  2  0
 51 52  1  0
 52 53  1  0
 51 54  1  0
 54 55  2  0
 46 55  1  0
 36 55  1  0
 23 56  2  0
 10 57  2  0
  6 57  1  0
 57 58  1  0
  4 58  1  0
 58 59  2  0
  5 60  2  0
  3 61  1  0
 61 62  1  0
  2 63  1  0
 62 64  1  0
 63 64  1  0
 64 65  2  0
  3 66  1  6
  7 67  1  0
  8 68  1  0
  9 69  1  0
 11 70  1  0
 12 71  1  0
 12 72  1  0
 13 73  1  0
 13 74  1  0
 15 75  1  0
 15 76  1  0
 16 77  1  0
 16 78  1  0
 18 79  1  0
 18 80  1  0
 19 81  1  0
 19 82  1  0
 21 83  1  0
 21 84  1  0
 22 85  1  0
 22 86  1  0
 25 87  1  0
 25 88  1  0
 26 89  1  0
 26 90  1  0
 27 91  1  0
 27 92  1  0
 28 93  1  0
 28 94  1  0
 31 95  1  0
 32 96  1  0
 33 97  1  0
 34 98  1  0
 40 99  1  0
 41100  1  0
 41101  1  0
 41102  1  0
 43103  1  6
 44104  1  0
 44105  1  0
 44106  1  0
 45107  1  0
 45108  1  0
 47109  1  0
 50110  1  0
 50111  1  0
 50112  1  0
 53113  1  0
 53114  1  0
 53115  1  0
 54116  1  0
 61117  1  0
 61118  1  0
 62119  1  0
 62120  1  0
 63121  1  0
M  END
>  <ANI_energy(hartree)>  (1) 
-3051.5961407874956

>  <ANI_energy(kcal/mol)>  (1) 
-1914904.0427094207

$$$$
