
     RDKit          3D

121127  0  0  1  0  0  0  0  0999 V2000
   -3.3950   14.3202    2.6309 O   0  0  0  0  0  0  0  0  0  0  0  0
   -3.5956   13.9346    1.4925 C   0  0  0  0  0  0  0  0  0  0  0  0
   -3.6311   12.4694    1.0655 C   0  0  1  0  0  0  0  0  0  0  0  0
   -3.9802   11.5917    2.1829 N   0  0  0  0  0  0  0  0  0  0  0  0
   -5.1839   11.6668    2.9016 C   0  0  0  0  0  0  0  0  0  0  0  0
   -5.1169   10.5537    3.8840 C   0  0  0  0  0  0  0  0  0  0  0  0
   -6.0400   10.1761    4.8474 C   0  0  0  0  0  0  0  0  0  0  0  0
   -5.7142    9.0736    5.6371 C   0  0  0  0  0  0  0  0  0  0  0  0
   -4.5066    8.3818    5.4726 C   0  0  0  0  0  0  0  0  0  0  0  0
   -3.5681    8.7746    4.5012 C   0  0  0  0  0  0  0  0  0  0  0  0
   -2.3676    8.1578    4.3322 N   0  0  0  0  0  0  0  0  0  0  0  0
   -1.9734    6.9650    5.0463 C   0  0  0  0  0  0  0  0  0  0  0  0
   -0.5179    6.6886    4.7403 C   0  0  0  0  0  0  0  0  0  0  0  0
   -0.3813    6.7011    3.3127 O   0  0  0  0  0  0  0  0  0  0  0  0
    0.9340    6.3885    2.8593 C   0  0  0  0  0  0  0  0  0  0  0  0
    1.0418    4.9550    2.3760 C   0  0  0  0  0  0  0  0  0  0  0  0
    0.7838    4.0828    3.4789 O   0  0  0  0  0  0  0  0  0  0  0  0
    0.4352    2.7469    3.1080 C   0  0  0  0  0  0  0  0  0  0  0  0
    1.6198    1.8570    2.7875 C   0  0  0  0  0  0  0  0  0  0  0  0
    2.2046    2.2464    1.5422 O   0  0  0  0  0  0  0  0  0  0  0  0
    3.3029    1.4106    1.1586 C   0  0  0  0  0  0  0  0  0  0  0  0
    2.8404    0.3131    0.2052 C   0  0  0  0  0  0  0  0  0  0  0  0
    3.9729   -0.6408   -0.1619 C   0  0  0  0  0  0  0  0  0  0  0  0
    3.6965   -1.6101   -1.0761 N   0  0  0  0  0  0  0  0  0  0  0  0
    2.4206   -1.8372   -1.7541 C   0  0  0  0  0  0  0  0  0  0  0  0
    1.9118   -3.2406   -1.4513 C   0  0  0  0  0  0  0  0  0  0  0  0
    4.7057   -2.6050   -1.4416 C   0  0  0  0  0  0  0  0  0  0  0  0
    4.1947   -4.0075   -1.1337 C   0  0  0  0  0  0  0  0  0  0  0  0
    2.9240   -4.2420   -1.8322 N   0  0  0  0  0  0  0  0  0  0  0  0
    2.4921   -5.5605   -2.0041 C   0  0  0  0  0  0  0  0  0  0  0  0
    1.4162   -5.8195   -2.8759 C   0  0  0  0  0  0  0  0  0  0  0  0
    1.0173   -7.1167   -3.1404 C   0  0  0  0  0  0  0  0  0  0  0  0
    3.1213   -6.6586   -1.3812 C   0  0  0  0  0  0  0  0  0  0  0  0
    2.6896   -7.9516   -1.6211 C   0  0  0  0  0  0  0  0  0  0  0  0
    1.6308   -8.2154   -2.5072 C   0  0  0  0  0  0  0  0  0  0  0  0
    1.2041   -9.5760   -2.8699 C   0  0  0  0  0  0  0  0  0  0  0  0
    0.7206   -9.7314   -4.0989 N   0  0  0  0  0  0  0  0  0  0  0  0
    1.8105   -9.9862   -4.9205 N   0  0  0  0  0  0  0  0  0  0  0  0
    1.6487   -9.5181   -6.2397 C   0  0  0  0  0  0  0  0  0  0  0  0
    0.5124   -8.8046   -6.4105 N   0  0  0  0  0  0  0  0  0  0  0  0
    0.1250   -8.3298   -7.7294 C   0  0  0  0  0  0  0  0  0  0  0  0
    2.4881   -9.7327   -7.1131 O   0  0  0  0  0  0  0  0  0  0  0  0
    2.6991  -11.1345   -4.6610 C   0  0  1  0  0  0  0  0  0  0  0  0
    4.0100  -10.7283   -3.9841 C   0  0  0  0  0  0  0  0  0  0  0  0
    1.9107  -12.2334   -3.9292 C   0  0  0  0  0  0  0  0  0  0  0  0
    1.6474  -12.0008   -2.4677 C   0  0  0  0  0  0  0  0  0  0  0  0
    1.7186  -13.0762   -1.5793 C   0  0  0  0  0  0  0  0  0  0  0  0
    1.4817  -12.9224   -0.2214 C   0  0  0  0  0  0  0  0  0  0  0  0
    1.5293  -13.9320    0.6840 O   0  0  0  0  0  0  0  0  0  0  0  0
    1.8469  -15.2368    0.1831 C   0  0  0  0  0  0  0  0  0  0  0  0
    1.1665  -11.6351    0.2928 C   0  0  0  0  0  0  0  0  0  0  0  0
    0.9384  -11.5611    1.6290 O   0  0  0  0  0  0  0  0  0  0  0  0
    0.5716  -10.2793    2.1528 C   0  0  0  0  0  0  0  0  0  0  0  0
    1.1118  -10.5596   -0.5749 C   0  0  0  0  0  0  0  0  0  0  0  0
    1.3348  -10.7168   -1.9603 C   0  0  0  0  0  0  0  0  0  0  0  0
    5.0838   -0.5323    0.3647 O   0  0  0  0  0  0  0  0  0  0  0  0
   -3.9160    9.8797    3.6976 C   0  0  0  0  0  0  0  0  0  0  0  0
   -3.1765   10.5174    2.5896 C   0  0  0  0  0  0  0  0  0  0  0  0
   -2.1000   10.2139    2.0913 O   0  0  0  0  0  0  0  0  0  0  0  0
   -6.0634   12.4873    2.7249 O   0  0  0  0  0  0  0  0  0  0  0  0
   -4.5267   12.2561   -0.1585 C   0  0  0  0  0  0  0  0  0  0  0  0
   -4.0391   13.1459   -1.2948 C   0  0  0  0  0  0  0  0  0  0  0  0
   -3.7462   14.8423    0.4547 N   0  0  0  0  0  0  0  0  0  0  0  0
   -3.9440   14.5947   -0.8994 C   0  0  0  0  0  0  0  0  0  0  0  0
   -4.0029   15.5210   -1.6938 O   0  0  0  0  0  0  0  0  0  0  0  0
   -2.6018   12.1978    0.7957 H   0  0  0  0  0  0  0  0  0  0  0  0
   -6.9715   10.7199    4.9690 H   0  0  0  0  0  0  0  0  0  0  0  0
   -6.4069    8.7377    6.4045 H   0  0  0  0  0  0  0  0  0  0  0  0
   -4.3000    7.5220    6.1059 H   0  0  0  0  0  0  0  0  0  0  0  0
   -1.8594    8.3896    3.4852 H   0  0  0  0  0  0  0  0  0  0  0  0
   -2.0975    7.1082    6.1285 H   0  0  0  0  0  0  0  0  0  0  0  0
   -2.5915    6.0925    4.7686 H   0  0  0  0  0  0  0  0  0  0  0  0
    0.1150    7.4772    5.1798 H   0  0  0  0  0  0  0  0  0  0  0  0
   -0.2061    5.7210    5.1502 H   0  0  0  0  0  0  0  0  0  0  0  0
    1.1604    7.0606    2.0183 H   0  0  0  0  0  0  0  0  0  0  0  0
    1.6812    6.5785    3.6470 H   0  0  0  0  0  0  0  0  0  0  0  0
    0.3042    4.7794    1.5741 H   0  0  0  0  0  0  0  0  0  0  0  0
    2.0469    4.7729    1.9673 H   0  0  0  0  0  0  0  0  0  0  0  0
   -0.0767    2.3214    3.9814 H   0  0  0  0  0  0  0  0  0  0  0  0
   -0.2845    2.7455    2.2715 H   0  0  0  0  0  0  0  0  0  0  0  0
    2.3624    1.9251    3.6002 H   0  0  0  0  0  0  0  0  0  0  0  0
    1.2654    0.8140    2.7382 H   0  0  0  0  0  0  0  0  0  0  0  0
    4.0278    2.0567    0.6482 H   0  0  0  0  0  0  0  0  0  0  0  0
    3.8047    0.9782    2.0361 H   0  0  0  0  0  0  0  0  0  0  0  0
    2.0302   -0.2680    0.6692 H   0  0  0  0  0  0  0  0  0  0  0  0
    2.4224    0.7746   -0.7003 H   0  0  0  0  0  0  0  0  0  0  0  0
    1.6736   -1.0999   -1.4553 H   0  0  0  0  0  0  0  0  0  0  0  0
    2.5793   -1.7451   -2.8382 H   0  0  0  0  0  0  0  0  0  0  0  0
    1.6709   -3.3236   -0.3737 H   0  0  0  0  0  0  0  0  0  0  0  0
    0.9837   -3.4086   -2.0027 H   0  0  0  0  0  0  0  0  0  0  0  0
    4.9085   -2.5313   -2.5210 H   0  0  0  0  0  0  0  0  0  0  0  0
    5.6281   -2.3985   -0.8928 H   0  0  0  0  0  0  0  0  0  0  0  0
    4.9427   -4.7308   -1.4783 H   0  0  0  0  0  0  0  0  0  0  0  0
    4.0730   -4.1252   -0.0410 H   0  0  0  0  0  0  0  0  0  0  0  0
    0.9177   -4.9905   -3.3721 H   0  0  0  0  0  0  0  0  0  0  0  0
    0.1901   -7.2949   -3.8236 H   0  0  0  0  0  0  0  0  0  0  0  0
    3.9421   -6.4932   -0.6924 H   0  0  0  0  0  0  0  0  0  0  0  0
    3.1965   -8.7784   -1.1288 H   0  0  0  0  0  0  0  0  0  0  0  0
   -0.1919   -8.9158   -5.6922 H   0  0  0  0  0  0  0  0  0  0  0  0
    0.9523   -7.7772   -8.1847 H   0  0  0  0  0  0  0  0  0  0  0  0
   -0.7228   -7.6494   -7.6161 H   0  0  0  0  0  0  0  0  0  0  0  0
   -0.1606   -9.1477   -8.4061 H   0  0  0  0  0  0  0  0  0  0  0  0
    2.9587  -11.5234   -5.6556 H   0  0  0  0  0  0  0  0  0  0  0  0
    3.8532  -10.1765   -3.0482 H   0  0  0  0  0  0  0  0  0  0  0  0
    4.6067  -10.1023   -4.6575 H   0  0  0  0  0  0  0  0  0  0  0  0
    4.5807  -11.6348   -3.7553 H   0  0  0  0  0  0  0  0  0  0  0  0
    0.9585  -12.3505   -4.4656 H   0  0  0  0  0  0  0  0  0  0  0  0
    2.4566  -13.1763   -4.0356 H   0  0  0  0  0  0  0  0  0  0  0  0
    1.9712  -14.0567   -1.9713 H   0  0  0  0  0  0  0  0  0  0  0  0
    1.8401  -15.8977    1.0538 H   0  0  0  0  0  0  0  0  0  0  0  0
    2.8424  -15.2521   -0.2803 H   0  0  0  0  0  0  0  0  0  0  0  0
    1.0939  -15.5769   -0.5403 H   0  0  0  0  0  0  0  0  0  0  0  0
   -0.3551   -9.9148    1.6889 H   0  0  0  0  0  0  0  0  0  0  0  0
    1.3773   -9.5475    2.0030 H   0  0  0  0  0  0  0  0  0  0  0  0
    0.4096  -10.4303    3.2232 H   0  0  0  0  0  0  0  0  0  0  0  0
    0.8949   -9.5617   -0.2046 H   0  0  0  0  0  0  0  0  0  0  0  0
   -4.4683   11.2022   -0.4484 H   0  0  0  0  0  0  0  0  0  0  0  0
   -5.5680   12.4829    0.0964 H   0  0  0  0  0  0  0  0  0  0  0  0
   -3.0351   12.8349   -1.6185 H   0  0  0  0  0  0  0  0  0  0  0  0
   -4.6917   13.0774   -2.1696 H   0  0  0  0  0  0  0  0  0  0  0  0
   -3.6866   15.8222    0.7194 H   0  0  0  0  0  0  0  0  0  0  0  0
  1  2  2  0
  2  3  1  0
  3  4  1  0
  4  5  1  0
  5  6  1  0
  6  7  1  0
  7  8  2  0
  8  9  1  0
  9 10  2  0
 10 11  1  0
 11 12  1  0
 12 13  1  0
 13 14  1  0
 14 15  1  0
 15 16  1  0
 16 17  1  0
 17 18  1  0
 18 19  1  0
 19 20  1  0
 20 21  1  0
 21 22  1  0
 22 23  1  0
 23 24  1  0
 24 25  1  0
 25 26  1  0
 24 27  1  0
 27 28  1  0
 28 29  1  0
 26 29  1  0
 29 30  1  0
 30 31  2  0
 31 32  1  0
 30 33  1  0
 33 34  2  0
 34 35  1  0
 32 35  2  0
 35 36  1  0
 36 37  1  0
 37 38  1  0
 38 39  1  0
 39 40  1  0
 40 41  1  0
 39 42  2  0
 38 43  1  0
 43 44  1  0
 43 45  1  0
 45 46  1  0
 46 47  2  0
 47 48  1  0
 48 49  1  0
 49 50  1  0
 48 51  2  0
 51 52  1  0
 52 53  1  0
 51 54  1  0
 54 55  2  0
 46 55  1  0
 36 55  1  0
 23 56  2  0
  6 57  2  0
 10 57  1  0
 57 58  1  0
  4 58  1  0
 58 59  2  0
  5 60  2  0
  3 61  1  0
 61 62  1  0
  2 63  1  0
 62 64  1  0
 63 64  1  0
 64 65  2  0
  3 66  1  6
  7 67  1  0
  8 68  1  0
  9 69  1  0
 11 70  1  0
 12 71  1  0
 12 72  1  0
 13 73  1  0
 13 74  1  0
 15 75  1  0
 15 76  1  0
 16 77  1  0
 16 78  1  0
 18 79  1  0
 18 80  1  0
 19 81  1  0
 19 82  1  0
 21 83  1  0
 21 84  1  0
 22 85  1  0
 22 86  1  0
 25 87  1  0
 25 88  1  0
 26 89  1  0
 26 90  1  0
 27 91  1  0
 27 92  1  0
 28 93  1  0
 28 94  1  0
 31 95  1  0
 32 96  1  0
 33 97  1  0
 34 98  1  0
 40 99  1  0
 41100  1  0
 41101  1  0
 41102  1  0
 43103  1  6
 44104  1  0
 44105  1  0
 44106  1  0
 45107  1  0
 45108  1  0
 47109  1  0
 50110  1  0
 50111  1  0
 50112  1  0
 53113  1  0
 53114  1  0
 53115  1  0
 54116  1  0
 61117  1  0
 61118  1  0
 62119  1  0
 62120  1  0
 63121  1  0
M  END
>  <ANI_energy(hartree)>  (1) 
-3051.593929693593

>  <ANI_energy(kcal/mol)>  (1) 
-1914902.655228097

$$$$

     RDKit          3D

121127  0  0  1  0  0  0  0  0999 V2000
   -2.4647   13.6729    0.7404 O   0  0  0  0  0  0  0  0  0  0  0  0
   -3.0274   13.2884   -0.2696 C   0  0  0  0  0  0  0  0  0  0  0  0
   -3.6330   11.8997   -0.4511 C   0  0  1  0  0  0  0  0  0  0  0  0
   -3.9771   11.2893    0.8336 N   0  0  0  0  0  0  0  0  0  0  0  0
   -4.9072   11.8240    1.7410 C   0  0  0  0  0  0  0  0  0  0  0  0
   -4.9897   10.8276    2.8414 C   0  0  0  0  0  0  0  0  0  0  0  0
   -5.7520   10.8525    3.9996 C   0  0  0  0  0  0  0  0  0  0  0  0
   -5.6356    9.7586    4.8574 C   0  0  0  0  0  0  0  0  0  0  0  0
   -4.7819    8.6839    4.5723 C   0  0  0  0  0  0  0  0  0  0  0  0
   -3.9991    8.6713    3.4044 C   0  0  0  0  0  0  0  0  0  0  0  0
   -3.1203    7.6810    3.0926 N   0  0  0  0  0  0  0  0  0  0  0  0
   -2.9605    6.4580    3.8467 C   0  0  0  0  0  0  0  0  0  0  0  0
   -1.7176    5.7411    3.3531 C   0  0  0  0  0  0  0  0  0  0  0  0
   -1.8647    5.5265    1.9461 O   0  0  0  0  0  0  0  0  0  0  0  0
   -0.6341    5.4809    1.2195 C   0  0  0  0  0  0  0  0  0  0  0  0
    0.2386    4.2778    1.5102 C   0  0  0  0  0  0  0  0  0  0  0  0
    0.8407    4.4403    2.7959 O   0  0  0  0  0  0  0  0  0  0  0  0
    1.2897    3.2174    3.3884 C   0  0  0  0  0  0  0  0  0  0  0  0
    2.4828    2.5800    2.7037 C   0  0  0  0  0  0  0  0  0  0  0  0
    2.0615    1.9042    1.5199 O   0  0  0  0  0  0  0  0  0  0  0  0
    3.1487    1.2819    0.8317 C   0  0  0  0  0  0  0  0  0  0  0  0
    2.5530    0.4302   -0.2768 C   0  0  0  0  0  0  0  0  0  0  0  0
    3.6215   -0.3675   -1.0143 C   0  0  0  0  0  0  0  0  0  0  0  0
    3.2048   -1.2314   -1.9882 N   0  0  0  0  0  0  0  0  0  0  0  0
    1.8231   -1.6590   -2.2091 C   0  0  0  0  0  0  0  0  0  0  0  0
    1.5874   -3.0309   -1.5867 C   0  0  0  0  0  0  0  0  0  0  0  0
    4.1504   -2.1946   -2.5571 C   0  0  0  0  0  0  0  0  0  0  0  0
    3.9404   -3.5697   -1.9304 C   0  0  0  0  0  0  0  0  0  0  0  0
    2.5511   -4.0125   -2.1284 N   0  0  0  0  0  0  0  0  0  0  0  0
    2.2683   -5.3614   -1.8746 C   0  0  0  0  0  0  0  0  0  0  0  0
    1.0015   -5.8743   -2.2171 C   0  0  0  0  0  0  0  0  0  0  0  0
    0.7047   -7.2118   -2.0284 C   0  0  0  0  0  0  0  0  0  0  0  0
    3.2141   -6.2509   -1.3233 C   0  0  0  0  0  0  0  0  0  0  0  0
    2.8987   -7.5815   -1.1113 C   0  0  0  0  0  0  0  0  0  0  0  0
    1.6349   -8.0953   -1.4483 C   0  0  0  0  0  0  0  0  0  0  0  0
    1.2768   -9.5156   -1.3037 C   0  0  1  0  0  0  0  0  0  0  0  0
    0.4086   -9.9934   -2.1916 N   0  0  0  0  0  0  0  0  0  0  0  0
    1.1683  -10.4048   -3.2803 N   0  0  0  0  0  0  0  0  0  0  0  0
    0.5271  -10.2412   -4.5214 C   0  0  0  0  0  0  0  0  0  0  0  0
   -0.6765   -9.6337   -4.4218 N   0  0  0  0  0  0  0  0  0  0  0  0
   -1.5199   -9.4732   -5.5954 C   0  0  0  0  0  0  0  0  0  0  0  0
    1.0505  -10.6046   -5.5740 O   0  0  0  0  0  0  0  0  0  0  0  0
    2.1987  -11.4486   -3.1281 C   0  0  1  0  0  0  0  0  0  0  0  0
    3.6180  -10.8798   -3.1122 C   0  0  0  0  0  0  0  0  0  0  0  0
    1.8501  -12.3312   -1.9166 C   0  0  0  0  0  0  0  0  0  0  0  0
    2.1550  -11.7367   -0.5713 C   0  0  0  0  0  0  0  0  0  0  0  0
    2.7518  -12.5245    0.4150 C   0  0  0  0  0  0  0  0  0  0  0  0
    3.0567  -12.0196    1.6705 C   0  0  0  0  0  0  0  0  0  0  0  0
    3.6376  -12.7371    2.6650 O   0  0  0  0  0  0  0  0  0  0  0  0
    3.9584  -14.1033    2.3750 C   0  0  0  0  0  0  0  0  0  0  0  0
    2.7518  -10.6653    1.9744 C   0  0  0  0  0  0  0  0  0  0  0  0
    3.0623  -10.2438    3.2266 O   0  0  0  0  0  0  0  0  0  0  0  0
    2.7080   -8.8974    3.5635 C   0  0  0  0  0  0  0  0  0  0  0  0
    2.1782   -9.8715    0.9986 C   0  0  0  0  0  0  0  0  0  0  0  0
    1.8783  -10.3777   -0.2850 C   0  0  0  0  0  0  0  0  0  0  0  0
    4.8144   -0.2242   -0.7407 O   0  0  0  0  0  0  0  0  0  0  0  0
   -4.1389    9.7732    2.5366 C   0  0  0  0  0  0  0  0  0  0  0  0
   -3.4908   10.0382    1.2378 C   0  0  0  0  0  0  0  0  0  0  0  0
   -2.6992    9.3481    0.6068 O   0  0  0  0  0  0  0  0  0  0  0  0
   -5.4930   12.8815    1.6132 O   0  0  0  0  0  0  0  0  0  0  0  0
   -4.8085   11.9188   -1.4324 C   0  0  0  0  0  0  0  0  0  0  0  0
   -4.3357   12.4826   -2.7661 C   0  0  0  0  0  0  0  0  0  0  0  0
   -3.0993   14.0991   -1.3928 N   0  0  0  0  0  0  0  0  0  0  0  0
   -3.6760   13.8282   -2.6290 C   0  0  0  0  0  0  0  0  0  0  0  0
   -3.6069   14.6460   -3.5340 O   0  0  0  0  0  0  0  0  0  0  0  0
   -2.8397   11.2650   -0.8687 H   0  0  0  0  0  0  0  0  0  0  0  0
   -6.4088   11.6893    4.2143 H   0  0  0  0  0  0  0  0  0  0  0  0
   -6.2171    9.7313    5.7753 H   0  0  0  0  0  0  0  0  0  0  0  0
   -4.7324    7.8479    5.2669 H   0  0  0  0  0  0  0  0  0  0  0  0
   -2.7410    7.7188    2.1522 H   0  0  0  0  0  0  0  0  0  0  0  0
   -2.8432    6.6865    4.9151 H   0  0  0  0  0  0  0  0  0  0  0  0
   -3.8373    5.7928    3.7559 H   0  0  0  0  0  0  0  0  0  0  0  0
   -0.8343    6.3675    3.5472 H   0  0  0  0  0  0  0  0  0  0  0  0
   -1.5942    4.7830    3.8752 H   0  0  0  0  0  0  0  0  0  0  0  0
   -0.9231    5.4525    0.1616 H   0  0  0  0  0  0  0  0  0  0  0  0
   -0.0546    6.4056    1.3842 H   0  0  0  0  0  0  0  0  0  0  0  0
   -0.3642    3.3555    1.4756 H   0  0  0  0  0  0  0  0  0  0  0  0
    1.0198    4.2145    0.7386 H   0  0  0  0  0  0  0  0  0  0  0  0
    1.5818    3.4812    4.4119 H   0  0  0  0  0  0  0  0  0  0  0  0
    0.4633    2.4887    3.4519 H   0  0  0  0  0  0  0  0  0  0  0  0
    3.2351    3.3534    2.4688 H   0  0  0  0  0  0  0  0  0  0  0  0
    2.9344    1.8571    3.4028 H   0  0  0  0  0  0  0  0  0  0  0  0
    3.8288    2.0398    0.4112 H   0  0  0  0  0  0  0  0  0  0  0  0
    3.7357    0.6519    1.5177 H   0  0  0  0  0  0  0  0  0  0  0  0
    1.8143   -0.2550    0.1612 H   0  0  0  0  0  0  0  0  0  0  0  0
    2.0116    1.0706   -0.9875 H   0  0  0  0  0  0  0  0  0  0  0  0
    1.1134   -0.9239   -1.8210 H   0  0  0  0  0  0  0  0  0  0  0  0
    1.6667   -1.7363   -3.2934 H   0  0  0  0  0  0  0  0  0  0  0  0
    1.6848   -2.9705   -0.4864 H   0  0  0  0  0  0  0  0  0  0  0  0
    0.5646   -3.3461   -1.8047 H   0  0  0  0  0  0  0  0  0  0  0  0
    3.9653   -2.2652   -3.6374 H   0  0  0  0  0  0  0  0  0  0  0  0
    5.1718   -1.8434   -2.3898 H   0  0  0  0  0  0  0  0  0  0  0  0
    4.6199   -4.2799   -2.4152 H   0  0  0  0  0  0  0  0  0  0  0  0
    4.1907   -3.5250   -0.8544 H   0  0  0  0  0  0  0  0  0  0  0  0
    0.2566   -5.2184   -2.6589 H   0  0  0  0  0  0  0  0  0  0  0  0
   -0.2816   -7.5834   -2.2952 H   0  0  0  0  0  0  0  0  0  0  0  0
    4.1966   -5.8924   -1.0388 H   0  0  0  0  0  0  0  0  0  0  0  0
    3.6510   -8.2430   -0.6864 H   0  0  0  0  0  0  0  0  0  0  0  0
   -1.0893   -9.6093   -3.4981 H   0  0  0  0  0  0  0  0  0  0  0  0
   -0.9698   -8.9474   -6.3818 H   0  0  0  0  0  0  0  0  0  0  0  0
   -2.3879   -8.8704   -5.3177 H   0  0  0  0  0  0  0  0  0  0  0  0
   -1.8656  -10.4348   -5.9994 H   0  0  0  0  0  0  0  0  0  0  0  0
    2.1123  -12.0708   -4.0307 H   0  0  0  0  0  0  0  0  0  0  0  0
    4.3264  -11.7076   -2.9963 H   0  0  0  0  0  0  0  0  0  0  0  0
    3.7801  -10.1741   -2.2868 H   0  0  0  0  0  0  0  0  0  0  0  0
    3.8285  -10.3672   -4.0574 H   0  0  0  0  0  0  0  0  0  0  0  0
    0.7765  -12.5546   -1.9900 H   0  0  0  0  0  0  0  0  0  0  0  0
    2.3918  -13.2772   -2.0107 H   0  0  0  0  0  0  0  0  0  0  0  0
    2.9869  -13.5581    0.1807 H   0  0  0  0  0  0  0  0  0  0  0  0
    4.4178  -14.4994    3.2844 H   0  0  0  0  0  0  0  0  0  0  0  0
    4.6718  -14.1734    1.5432 H   0  0  0  0  0  0  0  0  0  0  0  0
    3.0543  -14.6806    2.1403 H   0  0  0  0  0  0  0  0  0  0  0  0
    1.6241   -8.7427    3.4765 H   0  0  0  0  0  0  0  0  0  0  0  0
    3.2398   -8.1783    2.9257 H   0  0  0  0  0  0  0  0  0  0  0  0
    3.0163   -8.7576    4.6028 H   0  0  0  0  0  0  0  0  0  0  0  0
    1.9555   -8.8272    1.1982 H   0  0  0  0  0  0  0  0  0  0  0  0
   -5.1694   10.8933   -1.5586 H   0  0  0  0  0  0  0  0  0  0  0  0
   -5.6273   12.5206   -1.0222 H   0  0  0  0  0  0  0  0  0  0  0  0
   -3.5979   11.8084   -3.2255 H   0  0  0  0  0  0  0  0  0  0  0  0
   -5.1614   12.5836   -3.4760 H   0  0  0  0  0  0  0  0  0  0  0  0
   -2.6586   15.0109   -1.3027 H   0  0  0  0  0  0  0  0  0  0  0  0
  1  2  2  0
  2  3  1  0
  3  4  1  0
  4  5  1  0
  5  6  1  0
  6  7  1  0
  7  8  2  0
  8  9  1  0
  9 10  2  0
 10 11  1  0
 11 12  1  0
 12 13  1  0
 13 14  1  0
 14 15  1  0
 15 16  1  0
 16 17  1  0
 17 18  1  0
 18 19  1  0
 19 20  1  0
 20 21  1  0
 21 22  1  0
 22 23  1  0
 23 24  1  0
 24 25  1  0
 25 26  1  0
 24 27  1  0
 27 28  1  0
 28 29  1  0
 26 29  1  0
 29 30  1  0
 30 31  2  0
 31 32  1  0
 30 33  1  0
 33 34  2  0
 34 35  1  0
 32 35  2  0
 36 35  1  6
 36 37  1  0
 37 38  1  0
 38 39  1  0
 39 40  1  0
 40 41  1  0
 39 42  2  0
 38 43  1  0
 43 44  1  0
 43 45  1  0
 45 46  1  0
 46 47  2  0
 47 48  1  0
 48 49  1  0
 49 50  1  0
 48 51  2  0
 51 52  1  0
 52 53  1  0
 51 54  1  0
 54 55  2  0
 46 55  1  0
 36 55  1  0
 23 56  2  0
  6 57  2  0
 10 57  1  0
 57 58  1  0
  4 58  1  0
 58 59  2  0
  5 60  2  0
  3 61  1  0
 61 62  1  0
  2 63  1  0
 62 64  1  0
 63 64  1  0
 64 65  2  0
  3 66  1  6
  7 67  1  0
  8 68  1  0
  9 69  1  0
 11 70  1  0
 12 71  1  0
 12 72  1  0
 13 73  1  0
 13 74  1  0
 15 75  1  0
 15 76  1  0
 16 77  1  0
 16 78  1  0
 18 79  1  0
 18 80  1  0
 19 81  1  0
 19 82  1  0
 21 83  1  0
 21 84  1  0
 22 85  1  0
 22 86  1  0
 25 87  1  0
 25 88  1  0
 26 89  1  0
 26 90  1  0
 27 91  1  0
 27 92  1  0
 28 93  1  0
 28 94  1  0
 31 95  1  0
 32 96  1  0
 33 97  1  0
 34 98  1  0
 40 99  1  0
 41100  1  0
 41101  1  0
 41102  1  0
 43103  1  6
 44104  1  0
 44105  1  0
 44106  1  0
 45107  1  0
 45108  1  0
 47109  1  0
 50110  1  0
 50111  1  0
 50112  1  0
 53113  1  0
 53114  1  0
 53115  1  0
 54116  1  0
 61117  1  0
 61118  1  0
 62119  1  0
 62120  1  0
 63121  1  0
M  END
>  <ANI_energy(hartree)>  (1) 
-3051.5970653747454

>  <ANI_energy(kcal/mol)>  (1) 
-1914904.6228962413

$$$$

     RDKit          3D

121127  0  0  1  0  0  0  0  0999 V2000
   -3.0698   13.7675    0.4096 O   0  0  0  0  0  0  0  0  0  0  0  0
   -3.4854   13.3958   -0.6739 C   0  0  0  0  0  0  0  0  0  0  0  0
   -3.8851   11.9603   -1.0061 C   0  0  1  0  0  0  0  0  0  0  0  0
   -4.2607   11.2136    0.1944 N   0  0  0  0  0  0  0  0  0  0  0  0
   -5.3172   11.5676    1.0512 C   0  0  0  0  0  0  0  0  0  0  0  0
   -5.3332   10.5136    2.0993 C   0  0  0  0  0  0  0  0  0  0  0  0
   -6.1621   10.3768    3.2029 C   0  0  0  0  0  0  0  0  0  0  0  0
   -5.9462    9.2686    4.0227 C   0  0  0  0  0  0  0  0  0  0  0  0
   -4.9358    8.3349    3.7526 C   0  0  0  0  0  0  0  0  0  0  0  0
   -4.0902    8.4860    2.6393 C   0  0  0  0  0  0  0  0  0  0  0  0
   -3.0723    7.6363    2.3407 N   0  0  0  0  0  0  0  0  0  0  0  0
   -2.7547    6.4419    3.0891 C   0  0  0  0  0  0  0  0  0  0  0  0
   -1.4018    5.9265    2.6401 C   0  0  0  0  0  0  0  0  0  0  0  0
   -1.4794    5.6583    1.2369 O   0  0  0  0  0  0  0  0  0  0  0  0
   -0.2185    5.6782    0.5609 C   0  0  0  0  0  0  0  0  0  0  0  0
    0.7670    4.6225    1.0214 C   0  0  0  0  0  0  0  0  0  0  0  0
    1.3501    5.0515    2.2554 O   0  0  0  0  0  0  0  0  0  0  0  0
    1.8435    3.9874    3.0750 C   0  0  0  0  0  0  0  0  0  0  0  0
    3.0527    3.2622    2.5175 C   0  0  0  0  0  0  0  0  0  0  0  0
    2.6438    2.3475    1.5018 O   0  0  0  0  0  0  0  0  0  0  0  0
    3.7241    1.5535    1.0081 C   0  0  0  0  0  0  0  0  0  0  0  0
    3.1354    0.5590    0.0202 C   0  0  0  0  0  0  0  0  0  0  0  0
    4.1923   -0.3939   -0.5260 C   0  0  0  0  0  0  0  0  0  0  0  0
    3.7928   -1.3164   -1.4499 N   0  0  0  0  0  0  0  0  0  0  0  0
    2.4093   -1.6614   -1.7767 C   0  0  0  0  0  0  0  0  0  0  0  0
    2.0302   -2.9897   -1.1303 C   0  0  0  0  0  0  0  0  0  0  0  0
    4.7188   -2.3606   -1.8920 C   0  0  0  0  0  0  0  0  0  0  0  0
    4.3600   -3.6932   -1.2422 C   0  0  0  0  0  0  0  0  0  0  0  0
    2.9674   -4.0506   -1.5520 N   0  0  0  0  0  0  0  0  0  0  0  0
    2.5702   -5.3718   -1.3150 C   0  0  0  0  0  0  0  0  0  0  0  0
    1.3043   -5.8022   -1.7606 C   0  0  0  0  0  0  0  0  0  0  0  0
    0.9049   -7.1162   -1.5989 C   0  0  0  0  0  0  0  0  0  0  0  0
    3.4051   -6.3183   -0.6844 C   0  0  0  0  0  0  0  0  0  0  0  0
    2.9862   -7.6244   -0.5018 C   0  0  0  0  0  0  0  0  0  0  0  0
    1.7247   -8.0570   -0.9465 C   0  0  0  0  0  0  0  0  0  0  0  0
    1.2690   -9.4521   -0.8382 C   0  0  0  0  0  0  0  0  0  0  0  0
    0.4275   -9.8729   -1.7776 N   0  0  0  0  0  0  0  0  0  0  0  0
    1.2081  -10.3340   -2.8298 N   0  0  0  0  0  0  0  0  0  0  0  0
    0.5977  -10.1934   -4.0924 C   0  0  0  0  0  0  0  0  0  0  0  0
   -0.5772   -9.5262   -4.0407 N   0  0  0  0  0  0  0  0  0  0  0  0
   -1.3953   -9.3767   -5.2339 C   0  0  0  0  0  0  0  0  0  0  0  0
    1.1202  -10.6239   -5.1196 O   0  0  0  0  0  0  0  0  0  0  0  0
    2.1934  -11.4111   -2.6176 C   0  0  1  0  0  0  0  0  0  0  0  0
    3.6266  -10.8876   -2.5047 C   0  0  0  0  0  0  0  0  0  0  0  0
    1.7365  -12.2939   -1.4438 C   0  0  0  0  0  0  0  0  0  0  0  0
    1.9542  -11.7272   -0.0692 C   0  0  0  0  0  0  0  0  0  0  0  0
    2.3933  -12.5655    0.9577 C   0  0  0  0  0  0  0  0  0  0  0  0
    2.6090  -12.0956    2.2448 C   0  0  0  0  0  0  0  0  0  0  0  0
    3.0328  -12.8641    3.2800 O   0  0  0  0  0  0  0  0  0  0  0  0
    3.2639  -14.2516    3.0040 C   0  0  0  0  0  0  0  0  0  0  0  0
    2.3822  -10.7233    2.5375 C   0  0  0  0  0  0  0  0  0  0  0  0
    2.6047  -10.3355    3.8193 O   0  0  0  0  0  0  0  0  0  0  0  0
    2.3360   -8.9647    4.1376 C   0  0  0  0  0  0  0  0  0  0  0  0
    1.9628   -9.8812    1.5241 C   0  0  0  0  0  0  0  0  0  0  0  0
    1.7408  -10.3567    0.2134 C   0  0  0  0  0  0  0  0  0  0  0  0
    5.3618   -0.3202   -0.1441 O   0  0  0  0  0  0  0  0  0  0  0  0
   -4.3270    9.6011    1.8114 C   0  0  0  0  0  0  0  0  0  0  0  0
   -3.6334   10.0211    0.5794 C   0  0  0  0  0  0  0  0  0  0  0  0
   -2.7096    9.4795   -0.0166 O   0  0  0  0  0  0  0  0  0  0  0  0
   -6.0355   12.5399    0.9243 O   0  0  0  0  0  0  0  0  0  0  0  0
   -4.9593   11.9091   -2.0961 C   0  0  0  0  0  0  0  0  0  0  0  0
   -4.4432   12.6288   -3.3356 C   0  0  0  0  0  0  0  0  0  0  0  0
   -3.5642   14.2772   -1.7418 N   0  0  0  0  0  0  0  0  0  0  0  0
   -3.9802   14.0314   -3.0459 C   0  0  0  0  0  0  0  0  0  0  0  0
   -3.9318   14.9172   -3.8859 O   0  0  0  0  0  0  0  0  0  0  0  0
   -2.9810   11.4639   -1.3840 H   0  0  0  0  0  0  0  0  0  0  0  0
   -6.9410   11.1046    3.4070 H   0  0  0  0  0  0  0  0  0  0  0  0
   -6.5726    9.1179    4.8982 H   0  0  0  0  0  0  0  0  0  0  0  0
   -4.8119    7.4795    4.4140 H   0  0  0  0  0  0  0  0  0  0  0  0
   -2.6385    7.7774    1.4349 H   0  0  0  0  0  0  0  0  0  0  0  0
   -2.7140    6.6704    4.1633 H   0  0  0  0  0  0  0  0  0  0  0  0
   -3.5161    5.6532    2.9591 H   0  0  0  0  0  0  0  0  0  0  0  0
   -0.6351    6.6905    2.8366 H   0  0  0  0  0  0  0  0  0  0  0  0
   -1.1444    5.0164    3.1966 H   0  0  0  0  0  0  0  0  0  0  0  0
   -0.4562    5.5034   -0.4953 H   0  0  0  0  0  0  0  0  0  0  0  0
    0.2458    6.6760    0.6416 H   0  0  0  0  0  0  0  0  0  0  0  0
    0.2503    3.6570    1.1432 H   0  0  0  0  0  0  0  0  0  0  0  0
    1.5564    4.5046    0.2656 H   0  0  0  0  0  0  0  0  0  0  0  0
    2.1316    4.4606    4.0219 H   0  0  0  0  0  0  0  0  0  0  0  0
    1.0445    3.2579    3.2918 H   0  0  0  0  0  0  0  0  0  0  0  0
    3.7777    3.9943    2.1200 H   0  0  0  0  0  0  0  0  0  0  0  0
    3.5331    2.7126    3.3431 H   0  0  0  0  0  0  0  0  0  0  0  0
    4.4793    2.1859    0.5147 H   0  0  0  0  0  0  0  0  0  0  0  0
    4.2240    1.0190    1.8311 H   0  0  0  0  0  0  0  0  0  0  0  0
    2.3489   -0.0178    0.5258 H   0  0  0  0  0  0  0  0  0  0  0  0
    2.6542    1.1000   -0.8063 H   0  0  0  0  0  0  0  0  0  0  0  0
    1.7200   -0.8710   -1.4703 H   0  0  0  0  0  0  0  0  0  0  0  0
    2.3362   -1.7694   -2.8673 H   0  0  0  0  0  0  0  0  0  0  0  0
    2.0370   -2.8864   -0.0286 H   0  0  0  0  0  0  0  0  0  0  0  0
    1.0105   -3.2467   -1.4245 H   0  0  0  0  0  0  0  0  0  0  0  0
    4.6298   -2.4653   -2.9821 H   0  0  0  0  0  0  0  0  0  0  0  0
    5.7422   -2.0687   -1.6421 H   0  0  0  0  0  0  0  0  0  0  0  0
    5.0311   -4.4633   -1.6394 H   0  0  0  0  0  0  0  0  0  0  0  0
    4.5153   -3.6226   -0.1500 H   0  0  0  0  0  0  0  0  0  0  0  0
    0.6438   -5.1017   -2.2640 H   0  0  0  0  0  0  0  0  0  0  0  0
   -0.0776   -7.4235   -1.9489 H   0  0  0  0  0  0  0  0  0  0  0  0
    4.3817   -6.0235   -0.3186 H   0  0  0  0  0  0  0  0  0  0  0  0
    3.6569   -8.3302   -0.0164 H   0  0  0  0  0  0  0  0  0  0  0  0
   -1.0025   -9.4418   -3.1264 H   0  0  0  0  0  0  0  0  0  0  0  0
   -1.8040  -10.3335   -5.5881 H   0  0  0  0  0  0  0  0  0  0  0  0
   -0.8019   -8.9357   -6.0406 H   0  0  0  0  0  0  0  0  0  0  0  0
   -2.2225   -8.7008   -5.0033 H   0  0  0  0  0  0  0  0  0  0  0  0
    2.1459  -12.0229   -3.5292 H   0  0  0  0  0  0  0  0  0  0  0  0
    4.2940  -11.7330   -2.3049 H   0  0  0  0  0  0  0  0  0  0  0  0
    3.7502  -10.1566   -1.6950 H   0  0  0  0  0  0  0  0  0  0  0  0
    3.9327  -10.4156   -3.4454 H   0  0  0  0  0  0  0  0  0  0  0  0
    0.6670  -12.4962   -1.5969 H   0  0  0  0  0  0  0  0  0  0  0  0
    2.2608  -13.2527   -1.5095 H   0  0  0  0  0  0  0  0  0  0  0  0
    2.5720  -13.6125    0.7317 H   0  0  0  0  0  0  0  0  0  0  0  0
    3.5967  -14.6898    3.9487 H   0  0  0  0  0  0  0  0  0  0  0  0
    4.0470  -14.3793    2.2447 H   0  0  0  0  0  0  0  0  0  0  0  0
    2.3416  -14.7480    2.6734 H   0  0  0  0  0  0  0  0  0  0  0  0
    2.5561   -8.8575    5.2030 H   0  0  0  0  0  0  0  0  0  0  0  0
    1.2819   -8.7160    3.9533 H   0  0  0  0  0  0  0  0  0  0  0  0
    2.9843   -8.2916    3.5599 H   0  0  0  0  0  0  0  0  0  0  0  0
    1.8000   -8.8246    1.7167 H   0  0  0  0  0  0  0  0  0  0  0  0
   -5.1684   10.8593   -2.3248 H   0  0  0  0  0  0  0  0  0  0  0  0
   -5.8846   12.3695   -1.7316 H   0  0  0  0  0  0  0  0  0  0  0  0
   -3.5837   12.0883   -3.7591 H   0  0  0  0  0  0  0  0  0  0  0  0
   -5.2044   12.6803   -4.1191 H   0  0  0  0  0  0  0  0  0  0  0  0
   -3.2574   15.2271   -1.5481 H   0  0  0  0  0  0  0  0  0  0  0  0
  1  2  2  0
  2  3  1  0
  3  4  1  0
  4  5  1  0
  5  6  1  0
  6  7  1  0
  7  8  2  0
  8  9  1  0
  9 10  2  0
 10 11  1  0
 11 12  1  0
 12 13  1  0
 13 14  1  0
 14 15  1  0
 15 16  1  0
 16 17  1  0
 17 18  1  0
 18 19  1  0
 19 20  1  0
 20 21  1  0
 21 22  1  0
 22 23  1  0
 23 24  1  0
 24 25  1  0
 25 26  1  0
 24 27  1  0
 27 28  1  0
 28 29  1  0
 26 29  1  0
 29 30  1  0
 30 31  2  0
 31 32  1  0
 30 33  1  0
 33 34  2  0
 34 35  1  0
 32 35  2  0
 35 36  1  0
 36 37  1  0
 37 38  1  0
 38 39  1  0
 39 40  1  0
 40 41  1  0
 39 42  2  0
 38 43  1  0
 43 44  1  0
 43 45  1  0
 45 46  1  0
 46 47  2  0
 47 48  1  0
 48 49  1  0
 49 50  1  0
 48 51  2  0
 51 52  1  0
 52 53  1  0
 51 54  1  0
 54 55  2  0
 46 55  1  0
 36 55  1  0
 23 56  2  0
  6 57  2  0
 10 57  1  0
 57 58  1  0
  4 58  1  0
 58 59  2  0
  5 60  2  0
  3 61  1  0
 61 62  1  0
  2 63  1  0
 62 64  1  0
 63 64  1  0
 64 65  2  0
  3 66  1  6
  7 67  1  0
  8 68  1  0
  9 69  1  0
 11 70  1  0
 12 71  1  0
 12 72  1  0
 13 73  1  0
 13 74  1  0
 15 75  1  0
 15 76  1  0
 16 77  1  0
 16 78  1  0
 18 79  1  0
 18 80  1  0
 19 81  1  0
 19 82  1  0
 21 83  1  0
 21 84  1  0
 22 85  1  0
 22 86  1  0
 25 87  1  0
 25 88  1  0
 26 89  1  0
 26 90  1  0
 27 91  1  0
 27 92  1  0
 28 93  1  0
 28 94  1  0
 31 95  1  0
 32 96  1  0
 33 97  1  0
 34 98  1  0
 40 99  1  0
 41100  1  0
 41101  1  0
 41102  1  0
 43103  1  6
 44104  1  0
 44105  1  0
 44106  1  0
 45107  1  0
 45108  1  0
 47109  1  0
 50110  1  0
 50111  1  0
 50112  1  0
 53113  1  0
 53114  1  0
 53115  1  0
 54116  1  0
 61117  1  0
 61118  1  0
 62119  1  0
 62120  1  0
 63121  1  0
M  END
>  <ANI_energy(hartree)>  (1) 
-3051.5972110484972

>  <ANI_energy(kcal/mol)>  (1) 
-1914904.7143078316

$$$$
