
     RDKit          3D

121127  0  0  1  0  0  0  0  0999 V2000
   -4.9870   14.7508   -0.5747 O   0  0  0  0  0  0  0  0  0  0  0  0
   -5.7486   14.3565   -1.4403 C   0  0  0  0  0  0  0  0  0  0  0  0
   -6.0553   12.8891   -1.7272 C   0  0  1  0  0  0  0  0  0  0  0  0
   -5.8150   12.0472   -0.5552 N   0  0  0  0  0  0  0  0  0  0  0  0
   -6.4699   12.1976    0.6787 C   0  0  0  0  0  0  0  0  0  0  0  0
   -5.9464   11.0960    1.5294 C   0  0  0  0  0  0  0  0  0  0  0  0
   -6.2363   10.7892    2.8506 C   0  0  0  0  0  0  0  0  0  0  0  0
   -5.5839    9.6843    3.3987 C   0  0  0  0  0  0  0  0  0  0  0  0
   -4.6785    8.9159    2.6552 C   0  0  0  0  0  0  0  0  0  0  0  0
   -4.3874    9.2304    1.3138 C   0  0  0  0  0  0  0  0  0  0  0  0
   -3.5186    8.5187    0.5536 N   0  0  0  0  0  0  0  0  0  0  0  0
   -2.7520    7.3912    1.0413 C   0  0  0  0  0  0  0  0  0  0  0  0
   -1.8002    6.9298   -0.0502 C   0  0  0  0  0  0  0  0  0  0  0  0
   -1.0451    5.8358    0.4609 O   0  0  0  0  0  0  0  0  0  0  0  0
   -0.0326    5.3871   -0.4351 C   0  0  0  0  0  0  0  0  0  0  0  0
    0.7991    4.3322    0.2607 C   0  0  0  0  0  0  0  0  0  0  0  0
    1.4728    4.9426    1.3623 O   0  0  0  0  0  0  0  0  0  0  0  0
    1.8614    4.0337    2.3917 C   0  0  0  0  0  0  0  0  0  0  0  0
    3.0670    3.1792    2.0504 C   0  0  0  0  0  0  0  0  0  0  0  0
    2.6959    2.1672    1.1172 O   0  0  0  0  0  0  0  0  0  0  0  0
    3.8075    1.3668    0.7100 C   0  0  0  0  0  0  0  0  0  0  0  0
    3.2609    0.2371   -0.1468 C   0  0  0  0  0  0  0  0  0  0  0  0
    4.3655   -0.7021   -0.6174 C   0  0  0  0  0  0  0  0  0  0  0  0
    4.0078   -1.7402   -1.4289 N   0  0  0  0  0  0  0  0  0  0  0  0
    2.6436   -2.2122   -1.6678 C   0  0  0  0  0  0  0  0  0  0  0  0
    2.3809   -3.4888   -0.8758 C   0  0  0  0  0  0  0  0  0  0  0  0
    4.9950   -2.7591   -1.7909 C   0  0  0  0  0  0  0  0  0  0  0  0
    4.7517   -4.0349   -0.9922 C   0  0  0  0  0  0  0  0  0  0  0  0
    3.3820   -4.5202   -1.2185 N   0  0  0  0  0  0  0  0  0  0  0  0
    3.0914   -5.8296   -0.8121 C   0  0  0  0  0  0  0  0  0  0  0  0
    1.8673   -6.4126   -1.1947 C   0  0  0  0  0  0  0  0  0  0  0  0
    1.5786   -7.7264   -0.8713 C   0  0  0  0  0  0  0  0  0  0  0  0
    3.9952   -6.6146   -0.0659 C   0  0  0  0  0  0  0  0  0  0  0  0
    3.6832   -7.9164    0.2833 C   0  0  0  0  0  0  0  0  0  0  0  0
    2.4696   -8.5063   -0.1096 C   0  0  0  0  0  0  0  0  0  0  0  0
    2.1379   -9.9146    0.1539 C   0  0  1  0  0  0  0  0  0  0  0  0
    1.3727  -10.5164   -0.7536 N   0  0  0  0  0  0  0  0  0  0  0  0
    2.2445  -11.0014   -1.7198 N   0  0  0  0  0  0  0  0  0  0  0  0
    1.7294  -10.9754   -3.0279 C   0  0  0  0  0  0  0  0  0  0  0  0
    0.5109  -10.3960   -3.1045 N   0  0  0  0  0  0  0  0  0  0  0  0
   -0.2104  -10.3342   -4.3652 C   0  0  0  0  0  0  0  0  0  0  0  0
    2.3655  -11.4202   -3.9826 O   0  0  0  0  0  0  0  0  0  0  0  0
    3.3032  -11.9655   -1.3726 C   0  0  1  0  0  0  0  0  0  0  0  0
    4.6870  -11.3179   -1.2983 C   0  0  0  0  0  0  0  0  0  0  0  0
    2.8905  -12.7412   -0.1091 C   0  0  0  0  0  0  0  0  0  0  0  0
    3.0412  -12.0000    1.1884 C   0  0  0  0  0  0  0  0  0  0  0  0
    3.5840  -12.6490    2.2990 C   0  0  0  0  0  0  0  0  0  0  0  0
    3.7344  -12.0084    3.5202 C   0  0  0  0  0  0  0  0  0  0  0  0
    4.2541  -12.5893    4.6310 O   0  0  0  0  0  0  0  0  0  0  0  0
    4.6821  -13.9515    4.5095 C   0  0  0  0  0  0  0  0  0  0  0  0
    3.3230  -10.6550    3.6578 C   0  0  0  0  0  0  0  0  0  0  0  0
    3.4699  -10.1016    4.8884 O   0  0  0  0  0  0  0  0  0  0  0  0
    3.0058   -8.7561    5.0535 C   0  0  0  0  0  0  0  0  0  0  0  0
    2.8161   -9.9932    2.5548 C   0  0  0  0  0  0  0  0  0  0  0  0
    2.6715  -10.6390    1.3078 C   0  0  0  0  0  0  0  0  0  0  0  0
    5.5355   -0.5164   -0.2772 O   0  0  0  0  0  0  0  0  0  0  0  0
   -5.0537   10.3504    0.7712 C   0  0  0  0  0  0  0  0  0  0  0  0
   -4.9634   10.9347   -0.5799 C   0  0  0  0  0  0  0  0  0  0  0  0
   -4.3063   10.5697   -1.5474 O   0  0  0  0  0  0  0  0  0  0  0  0
   -7.2826   13.0608    0.9474 O   0  0  0  0  0  0  0  0  0  0  0  0
   -7.4597   12.7080   -2.3111 C   0  0  0  0  0  0  0  0  0  0  0  0
   -7.5831   13.5446   -3.5783 C   0  0  0  0  0  0  0  0  0  0  0  0
   -6.3633   15.2520   -2.3031 N   0  0  0  0  0  0  0  0  0  0  0  0
   -7.2305   14.9911   -3.3584 C   0  0  0  0  0  0  0  0  0  0  0  0
   -7.6390   15.9034   -4.0609 O   0  0  0  0  0  0  0  0  0  0  0  0
   -5.3227   12.5584   -2.4755 H   0  0  0  0  0  0  0  0  0  0  0  0
   -6.9388   11.3875    3.4215 H   0  0  0  0  0  0  0  0  0  0  0  0
   -5.7764    9.4060    4.4317 H   0  0  0  0  0  0  0  0  0  0  0  0
   -4.1989    8.0638    3.1319 H   0  0  0  0  0  0  0  0  0  0  0  0
   -3.3957    8.8404   -0.3998 H   0  0  0  0  0  0  0  0  0  0  0  0
   -2.1767    7.6655    1.9395 H   0  0  0  0  0  0  0  0  0  0  0  0
   -3.4089    6.5582    1.3384 H   0  0  0  0  0  0  0  0  0  0  0  0
   -2.3726    6.6273   -0.9436 H   0  0  0  0  0  0  0  0  0  0  0  0
   -1.1348    7.7636   -0.3320 H   0  0  0  0  0  0  0  0  0  0  0  0
   -0.4825    4.9554   -1.3452 H   0  0  0  0  0  0  0  0  0  0  0  0
    0.6214    6.2238   -0.7347 H   0  0  0  0  0  0  0  0  0  0  0  0
    0.1441    3.5195    0.6146 H   0  0  0  0  0  0  0  0  0  0  0  0
    1.5256    3.9089   -0.4487 H   0  0  0  0  0  0  0  0  0  0  0  0
    2.1218    4.6586    3.2553 H   0  0  0  0  0  0  0  0  0  0  0  0
    1.0164    3.3876    2.6872 H   0  0  0  0  0  0  0  0  0  0  0  0
    3.8731    3.8133    1.6408 H   0  0  0  0  0  0  0  0  0  0  0  0
    3.4347    2.7145    2.9805 H   0  0  0  0  0  0  0  0  0  0  0  0
    4.5287    1.9704    0.1362 H   0  0  0  0  0  0  0  0  0  0  0  0
    4.3364    0.9582    1.5846 H   0  0  0  0  0  0  0  0  0  0  0  0
    2.5226   -0.3278    0.4391 H   0  0  0  0  0  0  0  0  0  0  0  0
    2.7304    0.6546   -1.0137 H   0  0  0  0  0  0  0  0  0  0  0  0
    1.9079   -1.4436   -1.4187 H   0  0  0  0  0  0  0  0  0  0  0  0
    2.5475   -2.4386   -2.7380 H   0  0  0  0  0  0  0  0  0  0  0  0
    2.4104   -3.2712    0.2086 H   0  0  0  0  0  0  0  0  0  0  0  0
    1.3753   -3.8484   -1.1066 H   0  0  0  0  0  0  0  0  0  0  0  0
    4.8852   -2.9868   -2.8601 H   0  0  0  0  0  0  0  0  0  0  0  0
    6.0007   -2.3725   -1.6070 H   0  0  0  0  0  0  0  0  0  0  0  0
    5.4662   -4.7955   -1.3272 H   0  0  0  0  0  0  0  0  0  0  0  0
    4.9287   -3.8377    0.0811 H   0  0  0  0  0  0  0  0  0  0  0  0
    1.1547   -5.8325   -1.7749 H   0  0  0  0  0  0  0  0  0  0  0  0
    0.6287   -8.1584   -1.1763 H   0  0  0  0  0  0  0  0  0  0  0  0
    4.9410   -6.1953    0.2573 H   0  0  0  0  0  0  0  0  0  0  0  0
    4.4004   -8.4968    0.8600 H   0  0  0  0  0  0  0  0  0  0  0  0
    0.0113  -10.2910   -2.2309 H   0  0  0  0  0  0  0  0  0  0  0  0
    0.4383   -9.9259   -5.1461 H   0  0  0  0  0  0  0  0  0  0  0  0
   -1.0650   -9.6640   -4.2411 H   0  0  0  0  0  0  0  0  0  0  0  0
   -0.5705  -11.3191   -4.6944 H   0  0  0  0  0  0  0  0  0  0  0  0
    3.3256  -12.6792   -2.2089 H   0  0  0  0  0  0  0  0  0  0  0  0
    5.4188  -12.0837   -1.0196 H   0  0  0  0  0  0  0  0  0  0  0  0
    4.7368  -10.5115   -0.5549 H   0  0  0  0  0  0  0  0  0  0  0  0
    4.9639  -10.9079   -2.2760 H   0  0  0  0  0  0  0  0  0  0  0  0
    1.8413  -13.0354   -0.2502 H   0  0  0  0  0  0  0  0  0  0  0  0
    3.4852  -13.6585   -0.0574 H   0  0  0  0  0  0  0  0  0  0  0  0
    3.9010  -13.6819    2.1928 H   0  0  0  0  0  0  0  0  0  0  0  0
    3.8413  -14.6091    4.2519 H   0  0  0  0  0  0  0  0  0  0  0  0
    5.0725  -14.2282    5.4924 H   0  0  0  0  0  0  0  0  0  0  0  0
    5.4765  -14.0515    3.7580 H   0  0  0  0  0  0  0  0  0  0  0  0
    1.9333   -8.6785    4.8280 H   0  0  0  0  0  0  0  0  0  0  0  0
    3.5723   -8.0636    4.4157 H   0  0  0  0  0  0  0  0  0  0  0  0
    3.1778   -8.5075    6.1041 H   0  0  0  0  0  0  0  0  0  0  0  0
    2.5298   -8.9474    2.6201 H   0  0  0  0  0  0  0  0  0  0  0  0
   -7.6036   11.6473   -2.5395 H   0  0  0  0  0  0  0  0  0  0  0  0
   -8.2131   13.0035   -1.5721 H   0  0  0  0  0  0  0  0  0  0  0  0
   -6.9028   13.1632   -4.3540 H   0  0  0  0  0  0  0  0  0  0  0  0
   -8.5945   13.5044   -3.9925 H   0  0  0  0  0  0  0  0  0  0  0  0
   -6.1334   16.2311   -2.1541 H   0  0  0  0  0  0  0  0  0  0  0  0
  1  2  2  0
  2  3  1  0
  3  4  1  0
  4  5  1  0
  5  6  1  0
  6  7  1  0
  7  8  2  0
  8  9  1  0
  9 10  2  0
 10 11  1  0
 11 12  1  0
 12 13  1  0
 13 14  1  0
 14 15  1  0
 15 16  1  0
 16 17  1  0
 17 18  1  0
 18 19  1  0
 19 20  1  0
 20 21  1  0
 21 22  1  0
 22 23  1  0
 23 24  1  0
 24 25  1  0
 25 26  1  0
 24 27  1  0
 27 28  1  0
 26 29  1  0
 28 29  1  0
 29 30  1  0
 30 31  2  0
 31 32  1  0
 30 33  1  0
 33 34  2  0
 34 35  1  0
 32 35  2  0
 36 35  1  6
 36 37  1  0
 37 38  1  0
 38 39  1  0
 39 40  1  0
 40 41  1  0
 39 42  2  0
 38 43  1  0
 43 44  1  0
 43 45  1  0
 45 46  1  0
 46 47  2  0
 47 48  1  0
 48 49  1  0
 49 50  1  0
 48 51  2  0
 51 52  1  0
 52 53  1  0
 51 54  1  0
 54 55  2  0
 46 55  1  0
 36 55  1  0
 23 56  2  0
  6 57  2  0
 10 57  1  0
 57 58  1  0
  4 58  1  0
 58 59  2  0
  5 60  2  0
  3 61  1  0
 61 62  1  0
  2 63  1  0
 63 64  1  0
 62 64  1  0
 64 65  2  0
  3 66  1  6
  7 67  1  0
  8 68  1  0
  9 69  1  0
 11 70  1  0
 12 71  1  0
 12 72  1  0
 13 73  1  0
 13 74  1  0
 15 75  1  0
 15 76  1  0
 16 77  1  0
 16 78  1  0
 18 79  1  0
 18 80  1  0
 19 81  1  0
 19 82  1  0
 21 83  1  0
 21 84  1  0
 22 85  1  0
 22 86  1  0
 25 87  1  0
 25 88  1  0
 26 89  1  0
 26 90  1  0
 27 91  1  0
 27 92  1  0
 28 93  1  0
 28 94  1  0
 31 95  1  0
 32 96  1  0
 33 97  1  0
 34 98  1  0
 40 99  1  0
 41100  1  0
 41101  1  0
 41102  1  0
 43103  1  6
 44104  1  0
 44105  1  0
 44106  1  0
 45107  1  0
 45108  1  0
 47109  1  0
 50110  1  0
 50111  1  0
 50112  1  0
 53113  1  0
 53114  1  0
 53115  1  0
 54116  1  0
 61117  1  0
 61118  1  0
 62119  1  0
 62120  1  0
 63121  1  0
M  END
>  <ANI_energy(hartree)>  (1) 
-3051.598873064412

>  <ANI_energy(kcal/mol)>  (1) 
-1914905.7572377762

$$$$

     RDKit          3D

121127  0  0  1  0  0  0  0  0999 V2000
   -6.5255   14.0700   -0.1937 O   0  0  0  0  0  0  0  0  0  0  0  0
   -7.0993   13.8878   -1.2535 C   0  0  0  0  0  0  0  0  0  0  0  0
   -7.4119   12.5062   -1.8281 C   0  0  1  0  0  0  0  0  0  0  0  0
   -7.5140   11.5012   -0.7661 N   0  0  0  0  0  0  0  0  0  0  0  0
   -8.4619   11.5469    0.2711 C   0  0  0  0  0  0  0  0  0  0  0  0
   -8.0276   10.5075    1.2389 C   0  0  0  0  0  0  0  0  0  0  0  0
   -8.6144   10.1247    2.4359 C   0  0  0  0  0  0  0  0  0  0  0  0
   -7.9766    9.1135    3.1551 C   0  0  0  0  0  0  0  0  0  0  0  0
   -6.7974    8.5119    2.6962 C   0  0  0  0  0  0  0  0  0  0  0  0
   -6.2047    8.9039    1.4798 C   0  0  0  0  0  0  0  0  0  0  0  0
   -5.0667    8.3451    0.9942 N   0  0  0  0  0  0  0  0  0  0  0  0
   -4.2852    7.3646    1.7182 C   0  0  0  0  0  0  0  0  0  0  0  0
   -3.0388    7.0137    0.9215 C   0  0  0  0  0  0  0  0  0  0  0  0
   -2.2700    6.1027    1.7029 O   0  0  0  0  0  0  0  0  0  0  0  0
   -1.0716    5.6723    1.0638 C   0  0  0  0  0  0  0  0  0  0  0  0
   -0.2973    4.8793    2.1012 C   0  0  0  0  0  0  0  0  0  0  0  0
    0.9358    4.4698    1.5149 O   0  0  0  0  0  0  0  0  0  0  0  0
    1.8357    3.9465    2.4917 C   0  0  0  0  0  0  0  0  0  0  0  0
    3.1179    3.5059    1.8228 C   0  0  0  0  0  0  0  0  0  0  0  0
    2.8749    2.3330    1.0469 O   0  0  0  0  0  0  0  0  0  0  0  0
    4.0856    1.6876    0.6516 C   0  0  0  0  0  0  0  0  0  0  0  0
    3.7041    0.4452   -0.1369 C   0  0  0  0  0  0  0  0  0  0  0  0
    4.9286   -0.3815   -0.5161 C   0  0  0  0  0  0  0  0  0  0  0  0
    4.7261   -1.5007   -1.2669 N   0  0  0  0  0  0  0  0  0  0  0  0
    3.4373   -2.0779   -1.6455 C   0  0  0  0  0  0  0  0  0  0  0  0
    3.2266   -3.4066   -0.9297 C   0  0  0  0  0  0  0  0  0  0  0  0
    5.8359   -2.4084   -1.5597 C   0  0  0  0  0  0  0  0  0  0  0  0
    5.6351   -3.7361   -0.8379 C   0  0  0  0  0  0  0  0  0  0  0  0
    4.3439   -4.3277   -1.2187 N   0  0  0  0  0  0  0  0  0  0  0  0
    4.1355   -5.6807   -0.9230 C   0  0  0  0  0  0  0  0  0  0  0  0
    3.0012   -6.3302   -1.4487 C   0  0  0  0  0  0  0  0  0  0  0  0
    2.7945   -7.6805   -1.2337 C   0  0  0  0  0  0  0  0  0  0  0  0
    5.0390   -6.4445   -0.1549 C   0  0  0  0  0  0  0  0  0  0  0  0
    4.8074   -7.7877    0.0832 C   0  0  0  0  0  0  0  0  0  0  0  0
    3.6783   -8.4394   -0.4428 C   0  0  0  0  0  0  0  0  0  0  0  0
    3.4305   -9.8803   -0.2735 C   0  0  0  0  0  0  0  0  0  0  0  0
    2.7811  -10.4863   -1.2629 N   0  0  0  0  0  0  0  0  0  0  0  0
    3.7488  -10.8744   -2.1812 N   0  0  0  0  0  0  0  0  0  0  0  0
    3.2986  -10.8754   -3.5158 C   0  0  0  0  0  0  0  0  0  0  0  0
    2.0449  -10.3875   -3.6516 N   0  0  0  0  0  0  0  0  0  0  0  0
    1.3793  -10.4084   -4.9446 C   0  0  0  0  0  0  0  0  0  0  0  0
    4.0096  -11.2653   -4.4410 O   0  0  0  0  0  0  0  0  0  0  0  0
    4.8420  -11.7821   -1.7855 C   0  0  1  0  0  0  0  0  0  0  0  0
    6.1681  -11.0523   -1.5668 C   0  0  0  0  0  0  0  0  0  0  0  0
    4.3850  -12.6424   -0.5945 C   0  0  0  0  0  0  0  0  0  0  0  0
    4.3798  -11.9557    0.7416 C   0  0  0  0  0  0  0  0  0  0  0  0
    4.8756  -12.6221    1.8639 C   0  0  0  0  0  0  0  0  0  0  0  0
    4.8903  -12.0318    3.1190 C   0  0  0  0  0  0  0  0  0  0  0  0
    5.3639  -12.6299    4.2413 O   0  0  0  0  0  0  0  0  0  0  0  0
    5.8863  -13.9565    4.0969 C   0  0  0  0  0  0  0  0  0  0  0  0
    4.3782  -10.7162    3.2815 C   0  0  0  0  0  0  0  0  0  0  0  0
    4.3955  -10.2139    4.5422 O   0  0  0  0  0  0  0  0  0  0  0  0
    3.8063   -8.9223    4.7338 C   0  0  0  0  0  0  0  0  0  0  0  0
    3.9115  -10.0368    2.1715 C   0  0  0  0  0  0  0  0  0  0  0  0
    3.9140  -10.6271    0.8891 C   0  0  0  0  0  0  0  0  0  0  0  0
    6.0547   -0.0406   -0.1467 O   0  0  0  0  0  0  0  0  0  0  0  0
   -6.8616    9.9268    0.7610 C   0  0  0  0  0  0  0  0  0  0  0  0
   -6.4994   10.5620   -0.5191 C   0  0  0  0  0  0  0  0  0  0  0  0
   -5.5383   10.3534   -1.2497 O   0  0  0  0  0  0  0  0  0  0  0  0
   -9.4126   12.3016    0.3357 O   0  0  0  0  0  0  0  0  0  0  0  0
   -8.6397   12.5285   -2.7392 C   0  0  0  0  0  0  0  0  0  0  0  0
   -8.4298   13.5631   -3.8390 C   0  0  0  0  0  0  0  0  0  0  0  0
   -7.4629   14.9528   -2.0618 N   0  0  0  0  0  0  0  0  0  0  0  0
   -8.0892   14.9275   -3.3034 C   0  0  0  0  0  0  0  0  0  0  0  0
   -8.3055   15.9676   -3.9063 O   0  0  0  0  0  0  0  0  0  0  0  0
   -6.5354   12.2119   -2.4202 H   0  0  0  0  0  0  0  0  0  0  0  0
   -9.5256   10.5990    2.7858 H   0  0  0  0  0  0  0  0  0  0  0  0
   -8.3987    8.7787    4.0990 H   0  0  0  0  0  0  0  0  0  0  0  0
   -6.3410    7.7304    3.2990 H   0  0  0  0  0  0  0  0  0  0  0  0
   -4.7194    8.7298    0.1233 H   0  0  0  0  0  0  0  0  0  0  0  0
   -3.9891    7.7436    2.7088 H   0  0  0  0  0  0  0  0  0  0  0  0
   -4.8739    6.4529    1.9034 H   0  0  0  0  0  0  0  0  0  0  0  0
   -3.3227    6.5587   -0.0417 H   0  0  0  0  0  0  0  0  0  0  0  0
   -2.4577    7.9274    0.7138 H   0  0  0  0  0  0  0  0  0  0  0  0
   -1.2956    5.0444    0.1867 H   0  0  0  0  0  0  0  0  0  0  0  0
   -0.4708    6.5330    0.7284 H   0  0  0  0  0  0  0  0  0  0  0  0
   -0.1203    5.5178    2.9816 H   0  0  0  0  0  0  0  0  0  0  0  0
   -0.8869    4.0065    2.4255 H   0  0  0  0  0  0  0  0  0  0  0  0
    2.0731    4.7241    3.2359 H   0  0  0  0  0  0  0  0  0  0  0  0
    1.3821    3.0912    3.0205 H   0  0  0  0  0  0  0  0  0  0  0  0
    3.5081    4.3186    1.1878 H   0  0  0  0  0  0  0  0  0  0  0  0
    3.8635    3.2919    2.6045 H   0  0  0  0  0  0  0  0  0  0  0  0
    4.7053    2.3596    0.0368 H   0  0  0  0  0  0  0  0  0  0  0  0
    4.6775    1.4073    1.5366 H   0  0  0  0  0  0  0  0  0  0  0  0
    3.0280   -0.1694    0.4733 H   0  0  0  0  0  0  0  0  0  0  0  0
    3.1487    0.7365   -1.0393 H   0  0  0  0  0  0  0  0  0  0  0  0
    2.6157   -1.3930   -1.4250 H   0  0  0  0  0  0  0  0  0  0  0  0
    3.4483   -2.2602   -2.7290 H   0  0  0  0  0  0  0  0  0  0  0  0
    3.1412   -3.2354    0.1605 H   0  0  0  0  0  0  0  0  0  0  0  0
    2.2815   -3.8407   -1.2632 H   0  0  0  0  0  0  0  0  0  0  0  0
    5.8626   -2.5968   -2.6426 H   0  0  0  0  0  0  0  0  0  0  0  0
    6.7754   -1.9396   -1.2560 H   0  0  0  0  0  0  0  0  0  0  0  0
    6.4468   -4.4131   -1.1283 H   0  0  0  0  0  0  0  0  0  0  0  0
    5.6887   -3.5744    0.2546 H   0  0  0  0  0  0  0  0  0  0  0  0
    2.2945   -5.7683   -2.0533 H   0  0  0  0  0  0  0  0  0  0  0  0
    1.9127   -8.1605   -1.6512 H   0  0  0  0  0  0  0  0  0  0  0  0
    5.9179   -5.9763    0.2736 H   0  0  0  0  0  0  0  0  0  0  0  0
    5.5226   -8.3525    0.6780 H   0  0  0  0  0  0  0  0  0  0  0  0
    1.4941  -10.3373   -2.8041 H   0  0  0  0  0  0  0  0  0  0  0  0
    2.0086   -9.9213   -5.6956 H   0  0  0  0  0  0  0  0  0  0  0  0
    0.4439   -9.8492   -4.8608 H   0  0  0  0  0  0  0  0  0  0  0  0
    1.1576  -11.4287   -5.2881 H   0  0  0  0  0  0  0  0  0  0  0  0
    4.9810  -12.4515   -2.6463 H   0  0  0  0  0  0  0  0  0  0  0  0
    6.9261  -11.7876   -1.2749 H   0  0  0  0  0  0  0  0  0  0  0  0
    6.1066  -10.2929   -0.7760 H   0  0  0  0  0  0  0  0  0  0  0  0
    6.4916  -10.5655   -2.4937 H   0  0  0  0  0  0  0  0  0  0  0  0
    3.3742  -13.0004   -0.8341 H   0  0  0  0  0  0  0  0  0  0  0  0
    5.0384  -13.5183   -0.5320 H   0  0  0  0  0  0  0  0  0  0  0  0
    5.2640  -13.6282    1.7402 H   0  0  0  0  0  0  0  0  0  0  0  0
    5.1086  -14.6516    3.7537 H   0  0  0  0  0  0  0  0  0  0  0  0
    6.2265  -14.2524    5.0928 H   0  0  0  0  0  0  0  0  0  0  0  0
    6.7348  -13.9739    3.4003 H   0  0  0  0  0  0  0  0  0  0  0  0
    2.7498   -8.9230    4.4331 H   0  0  0  0  0  0  0  0  0  0  0  0
    4.3527   -8.1523    4.1720 H   0  0  0  0  0  0  0  0  0  0  0  0
    3.8831   -8.7154    5.8045 H   0  0  0  0  0  0  0  0  0  0  0  0
    3.5428   -9.0190    2.2612 H   0  0  0  0  0  0  0  0  0  0  0  0
   -8.7636   11.5323   -3.1751 H   0  0  0  0  0  0  0  0  0  0  0  0
   -9.5349   12.7534   -2.1493 H   0  0  0  0  0  0  0  0  0  0  0  0
   -7.6002   13.2595   -4.4942 H   0  0  0  0  0  0  0  0  0  0  0  0
   -9.3156   13.6618   -4.4719 H   0  0  0  0  0  0  0  0  0  0  0  0
   -7.2293   15.8751   -1.7039 H   0  0  0  0  0  0  0  0  0  0  0  0
  1  2  2  0
  2  3  1  0
  3  4  1  0
  4  5  1  0
  5  6  1  0
  6  7  2  0
  7  8  1  0
  8  9  2  0
  9 10  1  0
 10 11  1  0
 11 12  1  0
 12 13  1  0
 13 14  1  0
 14 15  1  0
 15 16  1  0
 16 17  1  0
 17 18  1  0
 18 19  1  0
 19 20  1  0
 20 21  1  0
 21 22  1  0
 22 23  1  0
 23 24  1  0
 24 25  1  0
 25 26  1  0
 24 27  1  0
 27 28  1  0
 26 29  1  0
 28 29  1  0
 29 30  1  0
 30 31  2  0
 31 32  1  0
 30 33  1  0
 33 34  2  0
 32 35  2  0
 34 35  1  0
 35 36  1  0
 36 37  1  0
 37 38  1  0
 38 39  1  0
 39 40  1  0
 40 41  1  0
 39 42  2  0
 38 43  1  0
 43 44  1  0
 43 45  1  0
 45 46  1  0
 46 47  2  0
 47 48  1  0
 48 49  1  0
 49 50  1  0
 48 51  2  0
 51 52  1  0
 52 53  1  0
 51 54  1  0
 54 55  2  0
 46 55  1  0
 36 55  1  0
 23 56  2  0
 10 57  2  0
  6 57  1  0
 57 58  1  0
  4 58  1  0
 58 59  2  0
  5 60  2  0
  3 61  1  0
 61 62  1  0
  2 63  1  0
 63 64  1  0
 62 64  1  0
 64 65  2  0
  3 66  1  6
  7 67  1  0
  8 68  1  0
  9 69  1  0
 11 70  1  0
 12 71  1  0
 12 72  1  0
 13 73  1  0
 13 74  1  0
 15 75  1  0
 15 76  1  0
 16 77  1  0
 16 78  1  0
 18 79  1  0
 18 80  1  0
 19 81  1  0
 19 82  1  0
 21 83  1  0
 21 84  1  0
 22 85  1  0
 22 86  1  0
 25 87  1  0
 25 88  1  0
 26 89  1  0
 26 90  1  0
 27 91  1  0
 27 92  1  0
 28 93  1  0
 28 94  1  0
 31 95  1  0
 32 96  1  0
 33 97  1  0
 34 98  1  0
 40 99  1  0
 41100  1  0
 41101  1  0
 41102  1  0
 43103  1  6
 44104  1  0
 44105  1  0
 44106  1  0
 45107  1  0
 45108  1  0
 47109  1  0
 50110  1  0
 50111  1  0
 50112  1  0
 53113  1  0
 53114  1  0
 53115  1  0
 54116  1  0
 61117  1  0
 61118  1  0
 62119  1  0
 62120  1  0
 63121  1  0
M  END
>  <ANI_energy(hartree)>  (1) 
-3051.5987126087084

>  <ANI_energy(kcal/mol)>  (1) 
-1914905.656550378

$$$$

     RDKit          3D

121127  0  0  1  0  0  0  0  0999 V2000
   -6.0591   14.4781   -2.3471 O   0  0  0  0  0  0  0  0  0  0  0  0
   -7.1468   14.2863   -2.8615 C   0  0  0  0  0  0  0  0  0  0  0  0
   -7.8235   12.9231   -2.9741 C   0  0  1  0  0  0  0  0  0  0  0  0
   -7.3741   12.0114   -1.9214 N   0  0  0  0  0  0  0  0  0  0  0  0
   -7.5176   12.2587   -0.5474 C   0  0  0  0  0  0  0  0  0  0  0  0
   -7.0252   11.0259    0.1199 C   0  0  0  0  0  0  0  0  0  0  0  0
   -6.9116   10.7525    1.4748 C   0  0  0  0  0  0  0  0  0  0  0  0
   -6.4174    9.4960    1.8232 C   0  0  0  0  0  0  0  0  0  0  0  0
   -6.0568    8.5508    0.8543 C   0  0  0  0  0  0  0  0  0  0  0  0
   -6.1787    8.8261   -0.5234 C   0  0  0  0  0  0  0  0  0  0  0  0
   -5.8604    7.9187   -1.4892 N   0  0  0  0  0  0  0  0  0  0  0  0
   -5.3757    6.5798   -1.2095 C   0  0  0  0  0  0  0  0  0  0  0  0
   -3.8842    6.5142   -0.8658 C   0  0  0  0  0  0  0  0  0  0  0  0
   -3.6114    5.1882   -0.4136 O   0  0  0  0  0  0  0  0  0  0  0  0
   -2.2272    4.9518   -0.1689 C   0  0  0  0  0  0  0  0  0  0  0  0
   -2.1351    3.6847    0.6618 C   0  0  0  0  0  0  0  0  0  0  0  0
   -0.7559    3.4558    0.9367 O   0  0  0  0  0  0  0  0  0  0  0  0
   -0.5610    2.4945    1.9731 C   0  0  0  0  0  0  0  0  0  0  0  0
    0.9170    2.2109    2.1113 C   0  0  0  0  0  0  0  0  0  0  0  0
    1.3461    1.4757    0.9680 O   0  0  0  0  0  0  0  0  0  0  0  0
    2.7241    1.1108    1.0211 C   0  0  0  0  0  0  0  0  0  0  0  0
    2.9428    0.0615   -0.0560 C   0  0  0  0  0  0  0  0  0  0  0  0
    4.3691   -0.4703   -0.0582 C   0  0  0  0  0  0  0  0  0  0  0  0
    4.6573   -1.4896   -0.9234 N   0  0  0  0  0  0  0  0  0  0  0  0
    3.6643   -2.3038   -1.6253 C   0  0  0  0  0  0  0  0  0  0  0  0
    3.4399   -3.6177   -0.8853 C   0  0  0  0  0  0  0  0  0  0  0  0
    5.9305   -2.2041   -0.8058 C   0  0  0  0  0  0  0  0  0  0  0  0
    5.7324   -3.5191   -0.0587 C   0  0  0  0  0  0  0  0  0  0  0  0
    4.7180   -4.3469   -0.7323 N   0  0  0  0  0  0  0  0  0  0  0  0
    4.6170   -5.6830   -0.3200 C   0  0  0  0  0  0  0  0  0  0  0  0
    3.7677   -6.5614   -1.0227 C   0  0  0  0  0  0  0  0  0  0  0  0
    3.6732   -7.8946   -0.6667 C   0  0  0  0  0  0  0  0  0  0  0  0
    5.3644   -6.2086    0.7550 C   0  0  0  0  0  0  0  0  0  0  0  0
    5.2459   -7.5380    1.1195 C   0  0  0  0  0  0  0  0  0  0  0  0
    4.3869   -8.4119    0.4306 C   0  0  0  0  0  0  0  0  0  0  0  0
    4.2641   -9.8402    0.7600 C   0  0  0  0  0  0  0  0  0  0  0  0
    3.9478  -10.6550   -0.2409 N   0  0  0  0  0  0  0  0  0  0  0  0
    5.1420  -11.0128   -0.8522 N   0  0  0  0  0  0  0  0  0  0  0  0
    5.0099  -11.2946   -2.2271 C   0  0  0  0  0  0  0  0  0  0  0  0
    3.7678  -11.0461   -2.7021 N   0  0  0  0  0  0  0  0  0  0  0  0
    3.4231  -11.3887   -4.0734 C   0  0  0  0  0  0  0  0  0  0  0  0
    5.9545  -11.7010   -2.9024 O   0  0  0  0  0  0  0  0  0  0  0  0
    6.2148  -11.6664   -0.0778 C   0  0  1  0  0  0  0  0  0  0  0  0
    7.3359  -10.7022    0.3136 C   0  0  0  0  0  0  0  0  0  0  0  0
    5.5954  -12.4393    1.0997 C   0  0  0  0  0  0  0  0  0  0  0  0
    5.1563  -11.6108    2.2747 C   0  0  0  0  0  0  0  0  0  0  0  0
    5.4014  -12.0678    3.5715 C   0  0  0  0  0  0  0  0  0  0  0  0
    5.0140  -11.3420    4.6886 C   0  0  0  0  0  0  0  0  0  0  0  0
    5.2273  -11.7347    5.9700 O   0  0  0  0  0  0  0  0  0  0  0  0
    5.8994  -12.9858    6.1602 C   0  0  0  0  0  0  0  0  0  0  0  0
    4.3439  -10.0999    4.5224 C   0  0  0  0  0  0  0  0  0  0  0  0
    3.9758   -9.4558    5.6589 O   0  0  0  0  0  0  0  0  0  0  0  0
    3.2434   -8.2343    5.5050 C   0  0  0  0  0  0  0  0  0  0  0  0
    4.1168   -9.6279    3.2434 C   0  0  0  0  0  0  0  0  0  0  0  0
    4.5187  -10.3591    2.1050 C   0  0  0  0  0  0  0  0  0  0  0  0
    5.2236    0.0128    0.6866 O   0  0  0  0  0  0  0  0  0  0  0  0
   -6.6662   10.1100   -0.8628 C   0  0  0  0  0  0  0  0  0  0  0  0
   -6.8998   10.7201   -2.1890 C   0  0  0  0  0  0  0  0  0  0  0  0
   -6.7358   10.2519   -3.3084 O   0  0  0  0  0  0  0  0  0  0  0  0
   -7.9609   13.2780   -0.0550 O   0  0  0  0  0  0  0  0  0  0  0  0
   -9.3489   13.0471   -3.0372 C   0  0  0  0  0  0  0  0  0  0  0  0
   -9.7317   13.9533   -4.2003 C   0  0  0  0  0  0  0  0  0  0  0  0
   -7.8379   15.3282   -3.4628 N   0  0  0  0  0  0  0  0  0  0  0  0
   -9.0519   15.2944   -4.1403 C   0  0  0  0  0  0  0  0  0  0  0  0
   -9.4927   16.3049   -4.6669 O   0  0  0  0  0  0  0  0  0  0  0  0
   -7.4708   12.4786   -3.9142 H   0  0  0  0  0  0  0  0  0  0  0  0
   -7.1968   11.4905    2.2177 H   0  0  0  0  0  0  0  0  0  0  0  0
   -6.3097    9.2331    2.8723 H   0  0  0  0  0  0  0  0  0  0  0  0
   -5.6703    7.5898    1.1857 H   0  0  0  0  0  0  0  0  0  0  0  0
   -5.9324    8.2358   -2.4465 H   0  0  0  0  0  0  0  0  0  0  0  0
   -5.9458    6.1429   -0.3805 H   0  0  0  0  0  0  0  0  0  0  0  0
   -5.5603    5.9651   -2.0979 H   0  0  0  0  0  0  0  0  0  0  0  0
   -3.2729    6.7552   -1.7514 H   0  0  0  0  0  0  0  0  0  0  0  0
   -3.6332    7.2426   -0.0759 H   0  0  0  0  0  0  0  0  0  0  0  0
   -1.6759    4.8360   -1.1155 H   0  0  0  0  0  0  0  0  0  0  0  0
   -1.7753    5.7865    0.3904 H   0  0  0  0  0  0  0  0  0  0  0  0
   -2.7068    3.8227    1.5940 H   0  0  0  0  0  0  0  0  0  0  0  0
   -2.5713    2.8335    0.1155 H   0  0  0  0  0  0  0  0  0  0  0  0
   -0.9494    2.8856    2.9271 H   0  0  0  0  0  0  0  0  0  0  0  0
   -1.0919    1.5564    1.7412 H   0  0  0  0  0  0  0  0  0  0  0  0
    1.4724    3.1592    2.2020 H   0  0  0  0  0  0  0  0  0  0  0  0
    1.0857    1.6212    3.0268 H   0  0  0  0  0  0  0  0  0  0  0  0
    3.3663    1.9892    0.8508 H   0  0  0  0  0  0  0  0  0  0  0  0
    2.9805    0.6958    2.0080 H   0  0  0  0  0  0  0  0  0  0  0  0
    2.2403   -0.7669    0.1116 H   0  0  0  0  0  0  0  0  0  0  0  0
    2.7032    0.4864   -1.0414 H   0  0  0  0  0  0  0  0  0  0  0  0
    2.7255   -1.7593   -1.7554 H   0  0  0  0  0  0  0  0  0  0  0  0
    4.0614   -2.5276   -2.6243 H   0  0  0  0  0  0  0  0  0  0  0  0
    2.9956   -3.4231    0.1088 H   0  0  0  0  0  0  0  0  0  0  0  0
    2.7255   -4.2223   -1.4480 H   0  0  0  0  0  0  0  0  0  0  0  0
    6.2974   -2.4243   -1.8172 H   0  0  0  0  0  0  0  0  0  0  0  0
    6.6564   -1.5706   -0.2893 H   0  0  0  0  0  0  0  0  0  0  0  0
    6.6876   -4.0557   -0.0464 H   0  0  0  0  0  0  0  0  0  0  0  0
    5.4364   -3.3077    0.9851 H   0  0  0  0  0  0  0  0  0  0  0  0
    3.1959   -6.1949   -1.8706 H   0  0  0  0  0  0  0  0  0  0  0  0
    3.0045   -8.5489   -1.2205 H   0  0  0  0  0  0  0  0  0  0  0  0
    6.0271   -5.5676    1.3237 H   0  0  0  0  0  0  0  0  0  0  0  0
    5.8395   -7.9117    1.9512 H   0  0  0  0  0  0  0  0  0  0  0  0
    3.0351  -10.9578   -2.0095 H   0  0  0  0  0  0  0  0  0  0  0  0
    4.1198  -10.9069   -4.7662 H   0  0  0  0  0  0  0  0  0  0  0  0
    2.4166  -11.0169   -4.2810 H   0  0  0  0  0  0  0  0  0  0  0  0
    3.4486  -12.4722   -4.2556 H   0  0  0  0  0  0  0  0  0  0  0  0
    6.6506  -12.4036   -0.7667 H   0  0  0  0  0  0  0  0  0  0  0  0
    8.0861  -11.2549    0.8893 H   0  0  0  0  0  0  0  0  0  0  0  0
    6.9821   -9.8655    0.9303 H   0  0  0  0  0  0  0  0  0  0  0  0
    7.8150  -10.2936   -0.5835 H   0  0  0  0  0  0  0  0  0  0  0  0
    4.7393  -12.9983    0.6964 H   0  0  0  0  0  0  0  0  0  0  0  0
    6.3265  -13.1748    1.4496 H   0  0  0  0  0  0  0  0  0  0  0  0
    5.9155  -13.0157    3.6994 H   0  0  0  0  0  0  0  0  0  0  0  0
    5.3195  -13.8142    5.7316 H   0  0  0  0  0  0  0  0  0  0  0  0
    5.9796  -13.1177    7.2425 H   0  0  0  0  0  0  0  0  0  0  0  0
    6.9047  -12.9661    5.7184 H   0  0  0  0  0  0  0  0  0  0  0  0
    3.0144   -7.8948    6.5185 H   0  0  0  0  0  0  0  0  0  0  0  0
    2.3084   -8.4018    4.9533 H   0  0  0  0  0  0  0  0  0  0  0  0
    3.8485   -7.4747    4.9916 H   0  0  0  0  0  0  0  0  0  0  0  0
    3.6318   -8.6687    3.0865 H   0  0  0  0  0  0  0  0  0  0  0  0
   -9.7699   12.0467   -3.1797 H   0  0  0  0  0  0  0  0  0  0  0  0
   -9.7286   13.4459   -2.0897 H   0  0  0  0  0  0  0  0  0  0  0  0
   -9.4457   13.4898   -5.1561 H   0  0  0  0  0  0  0  0  0  0  0  0
  -10.8110   14.1241   -4.2396 H   0  0  0  0  0  0  0  0  0  0  0  0
   -7.3800   16.2353   -3.4249 H   0  0  0  0  0  0  0  0  0  0  0  0
  1  2  2  0
  2  3  1  0
  3  4  1  0
  4  5  1  0
  5  6  1  0
  6  7  2  0
  7  8  1  0
  8  9  2  0
  9 10  1  0
 10 11  1  0
 11 12  1  0
 12 13  1  0
 13 14  1  0
 14 15  1  0
 15 16  1  0
 16 17  1  0
 17 18  1  0
 18 19  1  0
 19 20  1  0
 20 21  1  0
 21 22  1  0
 22 23  1  0
 23 24  1  0
 24 25  1  0
 25 26  1  0
 24 27  1  0
 27 28  1  0
 26 29  1  0
 28 29  1  0
 29 30  1  0
 30 31  2  0
 31 32  1  0
 30 33  1  0
 33 34  2  0
 32 35  2  0
 34 35  1  0
 35 36  1  0
 36 37  1  0
 37 38  1  0
 38 39  1  0
 39 40  1  0
 40 41  1  0
 39 42  2  0
 38 43  1  0
 43 44  1  0
 43 45  1  0
 45 46  1  0
 46 47  2  0
 47 48  1  0
 48 49  1  0
 49 50  1  0
 48 51  2  0
 51 52  1  0
 52 53  1  0
 51 54  1  0
 54 55  2  0
 36 55  1  0
 46 55  1  0
 23 56  2  0
 10 57  2  0
  6 57  1  0
 57 58  1  0
  4 58  1  0
 58 59  2  0
  5 60  2  0
  3 61  1  0
 61 62  1  0
  2 63  1  0
 62 64  1  0
 63 64  1  0
 64 65  2  0
  3 66  1  6
  7 67  1  0
  8 68  1  0
  9 69  1  0
 11 70  1  0
 12 71  1  0
 12 72  1  0
 13 73  1  0
 13 74  1  0
 15 75  1  0
 15 76  1  0
 16 77  1  0
 16 78  1  0
 18 79  1  0
 18 80  1  0
 19 81  1  0
 19 82  1  0
 21 83  1  0
 21 84  1  0
 22 85  1  0
 22 86  1  0
 25 87  1  0
 25 88  1  0
 26 89  1  0
 26 90  1  0
 27 91  1  0
 27 92  1  0
 28 93  1  0
 28 94  1  0
 31 95  1  0
 32 96  1  0
 33 97  1  0
 34 98  1  0
 40 99  1  0
 41100  1  0
 41101  1  0
 41102  1  0
 43103  1  6
 44104  1  0
 44105  1  0
 44106  1  0
 45107  1  0
 45108  1  0
 47109  1  0
 50110  1  0
 50111  1  0
 50112  1  0
 53113  1  0
 53114  1  0
 53115  1  0
 54116  1  0
 61117  1  0
 61118  1  0
 62119  1  0
 62120  1  0
 63121  1  0
M  END
>  <ANI_energy(hartree)>  (1) 
-3051.597194836034

>  <ANI_energy(kcal/mol)>  (1) 
-1914904.7041343648

$$$$
