
     RDKit          3D

121127  0  0  1  0  0  0  0  0999 V2000
   -8.3373   13.7706   -1.7269 O   0  0  0  0  0  0  0  0  0  0  0  0
   -8.4903   14.0515   -2.9026 C   0  0  0  0  0  0  0  0  0  0  0  0
   -8.1443   13.1305   -4.0697 C   0  0  1  0  0  0  0  0  0  0  0  0
   -8.1500   11.7242   -3.6670 N   0  0  0  0  0  0  0  0  0  0  0  0
   -9.2717   11.0505   -3.1593 C   0  0  0  0  0  0  0  0  0  0  0  0
   -8.8247    9.6453   -2.9716 C   0  0  0  0  0  0  0  0  0  0  0  0
   -9.5325    8.5617   -2.4732 C   0  0  0  0  0  0  0  0  0  0  0  0
   -8.8552    7.3444   -2.4063 C   0  0  0  0  0  0  0  0  0  0  0  0
   -7.5240    7.2156   -2.8244 C   0  0  0  0  0  0  0  0  0  0  0  0
   -6.8076    8.3150   -3.3402 C   0  0  0  0  0  0  0  0  0  0  0  0
   -5.5228    8.2227   -3.7838 N   0  0  0  0  0  0  0  0  0  0  0  0
   -4.7231    7.0142   -3.7107 C   0  0  0  0  0  0  0  0  0  0  0  0
   -4.1483    6.7232   -2.3203 C   0  0  0  0  0  0  0  0  0  0  0  0
   -3.4085    5.5077   -2.4174 O   0  0  0  0  0  0  0  0  0  0  0  0
   -2.6813    5.1993   -1.2321 C   0  0  0  0  0  0  0  0  0  0  0  0
   -1.9250    3.9047   -1.5234 C   0  0  0  0  0  0  0  0  0  0  0  0
   -1.1567    3.4597   -0.4043 O   0  0  0  0  0  0  0  0  0  0  0  0
    0.1144    4.1101   -0.3082 C   0  0  0  0  0  0  0  0  0  0  0  0
    0.8458    3.5920    0.9070 C   0  0  0  0  0  0  0  0  0  0  0  0
    1.2343    2.2372    0.6828 O   0  0  0  0  0  0  0  0  0  0  0  0
    1.9014    1.6677    1.8083 C   0  0  0  0  0  0  0  0  0  0  0  0
    2.4914    0.3383    1.3627 C   0  0  0  0  0  0  0  0  0  0  0  0
    3.2722   -0.3399    2.4831 C   0  0  0  0  0  0  0  0  0  0  0  0
    3.9894   -1.4521    2.1652 N   0  0  0  0  0  0  0  0  0  0  0  0
    4.0308   -2.1307    0.8711 C   0  0  0  0  0  0  0  0  0  0  0  0
    3.6373   -3.5983    1.0222 C   0  0  0  0  0  0  0  0  0  0  0  0
    4.8298   -2.1074    3.1687 C   0  0  0  0  0  0  0  0  0  0  0  0
    4.4036   -3.5583    3.3251 C   0  0  0  0  0  0  0  0  0  0  0  0
    4.4859   -4.2508    2.0281 N   0  0  0  0  0  0  0  0  0  0  0  0
    4.5743   -5.6429    2.0379 C   0  0  0  0  0  0  0  0  0  0  0  0
    3.7945   -6.4646    1.1992 C   0  0  0  0  0  0  0  0  0  0  0  0
    3.9611   -7.8409    1.2059 C   0  0  0  0  0  0  0  0  0  0  0  0
    5.5204   -6.2660    2.8801 C   0  0  0  0  0  0  0  0  0  0  0  0
    5.6795   -7.6367    2.8799 C   0  0  0  0  0  0  0  0  0  0  0  0
    4.8958   -8.4637    2.0545 C   0  0  0  0  0  0  0  0  0  0  0  0
    5.0751   -9.9221    1.9824 C   0  0  0  0  0  0  0  0  0  0  0  0
    4.7733  -10.4965    0.8227 N   0  0  0  0  0  0  0  0  0  0  0  0
    5.9166  -10.4316    0.0383 N   0  0  0  0  0  0  0  0  0  0  0  0
    5.6495  -10.3672   -1.3442 C   0  0  0  0  0  0  0  0  0  0  0  0
    4.3314  -10.2473   -1.6215 N   0  0  0  0  0  0  0  0  0  0  0  0
    3.8591  -10.2647   -2.9968 C   0  0  0  0  0  0  0  0  0  0  0  0
    6.5484  -10.3934   -2.1838 O   0  0  0  0  0  0  0  0  0  0  0  0
    7.1868  -11.0176    0.5069 C   0  0  1  0  0  0  0  0  0  0  0  0
    8.1554   -9.9720    1.0638 C   0  0  0  0  0  0  0  0  0  0  0  0
    6.8881  -12.1864    1.4604 C   0  0  0  0  0  0  0  0  0  0  0  0
    6.4516  -11.8158    2.8509 C   0  0  0  0  0  0  0  0  0  0  0  0
    6.9046  -12.5716    3.9349 C   0  0  0  0  0  0  0  0  0  0  0  0
    6.5365  -12.2759    5.2391 C   0  0  0  0  0  0  0  0  0  0  0  0
    6.9401  -12.9784    6.3278 O   0  0  0  0  0  0  0  0  0  0  0  0
    7.7915  -14.1066    6.0919 C   0  0  0  0  0  0  0  0  0  0  0  0
    5.6841  -11.1675    5.4930 C   0  0  0  0  0  0  0  0  0  0  0  0
    5.3687  -10.9370    6.7929 O   0  0  0  0  0  0  0  0  0  0  0  0
    4.4994   -9.8314    7.0636 C   0  0  0  0  0  0  0  0  0  0  0  0
    5.2373  -10.4064    4.4286 C   0  0  0  0  0  0  0  0  0  0  0  0
    5.5995  -10.7130    3.0990 C   0  0  0  0  0  0  0  0  0  0  0  0
    3.2447    0.1134    3.6305 O   0  0  0  0  0  0  0  0  0  0  0  0
   -7.5037    9.5460   -3.3926 C   0  0  0  0  0  0  0  0  0  0  0  0
   -7.0508   10.8746   -3.8553 C   0  0  0  0  0  0  0  0  0  0  0  0
   -5.9673   11.2192   -4.3105 O   0  0  0  0  0  0  0  0  0  0  0  0
  -10.3568   11.5504   -2.9347 O   0  0  0  0  0  0  0  0  0  0  0  0
   -9.0298   13.4059   -5.2889 C   0  0  0  0  0  0  0  0  0  0  0  0
   -8.8801   14.8678   -5.6905 C   0  0  0  0  0  0  0  0  0  0  0  0
   -8.9455   15.3075   -3.2760 N   0  0  0  0  0  0  0  0  0  0  0  0
   -9.1498   15.8166   -4.5538 C   0  0  0  0  0  0  0  0  0  0  0  0
   -9.5003   16.9769   -4.7072 O   0  0  0  0  0  0  0  0  0  0  0  0
   -7.1029   13.3490   -4.3408 H   0  0  0  0  0  0  0  0  0  0  0  0
  -10.5645    8.6703   -2.1551 H   0  0  0  0  0  0  0  0  0  0  0  0
   -9.3681    6.4669   -2.0216 H   0  0  0  0  0  0  0  0  0  0  0  0
   -7.0440    6.2435   -2.7391 H   0  0  0  0  0  0  0  0  0  0  0  0
   -5.0870    9.0894   -4.0698 H   0  0  0  0  0  0  0  0  0  0  0  0
   -5.3172    6.1509   -4.0371 H   0  0  0  0  0  0  0  0  0  0  0  0
   -3.8893    7.1242   -4.4133 H   0  0  0  0  0  0  0  0  0  0  0  0
   -3.4888    7.5462   -1.9972 H   0  0  0  0  0  0  0  0  0  0  0  0
   -4.9568    6.6282   -1.5743 H   0  0  0  0  0  0  0  0  0  0  0  0
   -1.9829    6.0172   -0.9855 H   0  0  0  0  0  0  0  0  0  0  0  0
   -3.3641    5.0617   -0.3763 H   0  0  0  0  0  0  0  0  0  0  0  0
   -2.6516    3.1135   -1.7481 H   0  0  0  0  0  0  0  0  0  0  0  0
   -1.2906    4.0428   -2.4146 H   0  0  0  0  0  0  0  0  0  0  0  0
    0.7175    3.9137   -1.2096 H   0  0  0  0  0  0  0  0  0  0  0  0
   -0.0118    5.1992   -0.2094 H   0  0  0  0  0  0  0  0  0  0  0  0
    1.7395    4.2139    1.0816 H   0  0  0  0  0  0  0  0  0  0  0  0
    0.1945    3.6699    1.7937 H   0  0  0  0  0  0  0  0  0  0  0  0
    2.7007    2.3366    2.1638 H   0  0  0  0  0  0  0  0  0  0  0  0
    1.1959    1.5199    2.6409 H   0  0  0  0  0  0  0  0  0  0  0  0
    1.6818   -0.3267    1.0276 H   0  0  0  0  0  0  0  0  0  0  0  0
    3.1450    0.5099    0.4972 H   0  0  0  0  0  0  0  0  0  0  0  0
    3.3671   -1.6483    0.1511 H   0  0  0  0  0  0  0  0  0  0  0  0
    5.0581   -2.0852    0.4799 H   0  0  0  0  0  0  0  0  0  0  0  0
    2.5694   -3.6676    1.3021 H   0  0  0  0  0  0  0  0  0  0  0  0
    3.7738   -4.0864    0.0515 H   0  0  0  0  0  0  0  0  0  0  0  0
    5.8795   -2.0712    2.8391 H   0  0  0  0  0  0  0  0  0  0  0  0
    4.7368   -1.5708    4.1161 H   0  0  0  0  0  0  0  0  0  0  0  0
    5.0492   -4.0432    4.0611 H   0  0  0  0  0  0  0  0  0  0  0  0
    3.3708   -3.5989    3.7202 H   0  0  0  0  0  0  0  0  0  0  0  0
    3.0447   -6.0261    0.5487 H   0  0  0  0  0  0  0  0  0  0  0  0
    3.3480   -8.4571    0.5523 H   0  0  0  0  0  0  0  0  0  0  0  0
    6.1522   -5.6550    3.5173 H   0  0  0  0  0  0  0  0  0  0  0  0
    6.4258   -8.0807    3.5351 H   0  0  0  0  0  0  0  0  0  0  0  0
    3.6958  -10.4796   -0.8691 H   0  0  0  0  0  0  0  0  0  0  0  0
    4.0072  -11.2403   -3.4807 H   0  0  0  0  0  0  0  0  0  0  0  0
    4.3864   -9.5053   -3.5823 H   0  0  0  0  0  0  0  0  0  0  0  0
    2.7926  -10.0250   -2.9999 H   0  0  0  0  0  0  0  0  0  0  0  0
    7.6531  -11.4382   -0.3948 H   0  0  0  0  0  0  0  0  0  0  0  0
    8.4521   -9.2708    0.2756 H   0  0  0  0  0  0  0  0  0  0  0  0
    9.0513  -10.4856    1.4288 H   0  0  0  0  0  0  0  0  0  0  0  0
    7.7319   -9.3945    1.8956 H   0  0  0  0  0  0  0  0  0  0  0  0
    6.1155  -12.8016    0.9777 H   0  0  0  0  0  0  0  0  0  0  0  0
    7.7885  -12.8050    1.5364 H   0  0  0  0  0  0  0  0  0  0  0  0
    7.5672  -13.4103    3.7434 H   0  0  0  0  0  0  0  0  0  0  0  0
    8.7351  -13.7979    5.6227 H   0  0  0  0  0  0  0  0  0  0  0  0
    7.2900  -14.8549    5.4638 H   0  0  0  0  0  0  0  0  0  0  0  0
    7.9960  -14.5345    7.0768 H   0  0  0  0  0  0  0  0  0  0  0  0
    4.9517   -8.8863    6.7330 H   0  0  0  0  0  0  0  0  0  0  0  0
    4.3686   -9.8140    8.1489 H   0  0  0  0  0  0  0  0  0  0  0  0
    3.5236   -9.9682    6.5779 H   0  0  0  0  0  0  0  0  0  0  0  0
    4.5950   -9.5466    4.5964 H   0  0  0  0  0  0  0  0  0  0  0  0
   -8.7073   12.7526   -6.1057 H   0  0  0  0  0  0  0  0  0  0  0  0
  -10.0739   13.1696   -5.0549 H   0  0  0  0  0  0  0  0  0  0  0  0
   -7.8548   15.0649   -6.0363 H   0  0  0  0  0  0  0  0  0  0  0  0
   -9.5496   15.1301   -6.5143 H   0  0  0  0  0  0  0  0  0  0  0  0
   -9.1359   15.9487   -2.5102 H   0  0  0  0  0  0  0  0  0  0  0  0
  1  2  2  0
  2  3  1  0
  3  4  1  0
  4  5  1  0
  5  6  1  0
  6  7  2  0
  7  8  1  0
  8  9  2  0
  9 10  1  0
 10 11  1  0
 11 12  1  0
 12 13  1  0
 13 14  1  0
 14 15  1  0
 15 16  1  0
 16 17  1  0
 17 18  1  0
 18 19  1  0
 19 20  1  0
 20 21  1  0
 21 22  1  0
 22 23  1  0
 23 24  1  0
 24 25  1  0
 25 26  1  0
 24 27  1  0
 27 28  1  0
 28 29  1  0
 26 29  1  0
 29 30  1  0
 30 31  2  0
 31 32  1  0
 30 33  1  0
 33 34  2  0
 32 35  2  0
 34 35  1  0
 35 36  1  0
 36 37  1  0
 37 38  1  0
 38 39  1  0
 39 40  1  0
 40 41  1  0
 39 42  2  0
 38 43  1  0
 43 44  1  0
 43 45  1  0
 45 46  1  0
 46 47  2  0
 47 48  1  0
 48 49  1  0
 49 50  1  0
 48 51  2  0
 51 52  1  0
 52 53  1  0
 51 54  1  0
 54 55  2  0
 46 55  1  0
 36 55  1  0
 23 56  2  0
 10 57  2  0
  6 57  1  0
 57 58  1  0
  4 58  1  0
 58 59  2  0
  5 60  2  0
  3 61  1  0
 61 62  1  0
  2 63  1  0
 62 64  1  0
 63 64  1  0
 64 65  2  0
  3 66  1  6
  7 67  1  0
  8 68  1  0
  9 69  1  0
 11 70  1  0
 12 71  1  0
 12 72  1  0
 13 73  1  0
 13 74  1  0
 15 75  1  0
 15 76  1  0
 16 77  1  0
 16 78  1  0
 18 79  1  0
 18 80  1  0
 19 81  1  0
 19 82  1  0
 21 83  1  0
 21 84  1  0
 22 85  1  0
 22 86  1  0
 25 87  1  0
 25 88  1  0
 26 89  1  0
 26 90  1  0
 27 91  1  0
 27 92  1  0
 28 93  1  0
 28 94  1  0
 31 95  1  0
 32 96  1  0
 33 97  1  0
 34 98  1  0
 40 99  1  0
 41100  1  0
 41101  1  0
 41102  1  0
 43103  1  6
 44104  1  0
 44105  1  0
 44106  1  0
 45107  1  0
 45108  1  0
 47109  1  0
 50110  1  0
 50111  1  0
 50112  1  0
 53113  1  0
 53114  1  0
 53115  1  0
 54116  1  0
 61117  1  0
 61118  1  0
 62119  1  0
 62120  1  0
 63121  1  0
M  END
>  <ANI_energy(hartree)>  (1) 
-3051.5961407874956

>  <ANI_energy(kcal/mol)>  (1) 
-1914904.0427094207

$$$$
