
     RDKit          3D

121127  0  0  1  0  0  0  0  0999 V2000
   -7.6360   14.3177   -0.0023 O   0  0  0  0  0  0  0  0  0  0  0  0
   -8.3196   14.5683   -0.9792 C   0  0  0  0  0  0  0  0  0  0  0  0
   -8.5386   13.6196   -2.1541 C   0  0  1  0  0  0  0  0  0  0  0  0
   -8.3471   12.2239   -1.7622 N   0  0  0  0  0  0  0  0  0  0  0  0
   -9.1041   11.5667   -0.7792 C   0  0  0  0  0  0  0  0  0  0  0  0
   -8.6234   10.1607   -0.7984 C   0  0  0  0  0  0  0  0  0  0  0  0
   -9.0103    9.0913   -0.0044 C   0  0  0  0  0  0  0  0  0  0  0  0
   -8.3820    7.8697   -0.2453 C   0  0  0  0  0  0  0  0  0  0  0  0
   -7.4068    7.7231   -1.2415 C   0  0  0  0  0  0  0  0  0  0  0  0
   -7.0189    8.8089   -2.0524 C   0  0  0  0  0  0  0  0  0  0  0  0
   -6.0991    8.7036   -3.0551 N   0  0  0  0  0  0  0  0  0  0  0  0
   -5.2808    7.5244   -3.2763 C   0  0  0  0  0  0  0  0  0  0  0  0
   -4.1583    7.3390   -2.2510 C   0  0  0  0  0  0  0  0  0  0  0  0
   -3.4790    6.1272   -2.5749 O   0  0  0  0  0  0  0  0  0  0  0  0
   -2.4652    5.8002   -1.6290 C   0  0  0  0  0  0  0  0  0  0  0  0
   -1.8008    4.5200   -2.1019 C   0  0  0  0  0  0  0  0  0  0  0  0
   -0.8388    4.1568   -1.1151 O   0  0  0  0  0  0  0  0  0  0  0  0
   -0.1696    2.9373   -1.4255 C   0  0  0  0  0  0  0  0  0  0  0  0
    0.6882    2.5806   -0.2251 C   0  0  0  0  0  0  0  0  0  0  0  0
    1.2766    1.3097   -0.4829 O   0  0  0  0  0  0  0  0  0  0  0  0
    1.9393    0.7703    0.6605 C   0  0  0  0  0  0  0  0  0  0  0  0
    2.4180   -0.6242    0.2894 C   0  0  0  0  0  0  0  0  0  0  0  0
    3.0017   -1.3591    1.4901 C   0  0  0  0  0  0  0  0  0  0  0  0
    3.4370   -2.6396    1.3021 N   0  0  0  0  0  0  0  0  0  0  0  0
    3.1855   -3.4528    0.1079 C   0  0  0  0  0  0  0  0  0  0  0  0
    2.0616   -4.4615    0.3890 C   0  0  0  0  0  0  0  0  0  0  0  0
    3.7637   -3.4678    2.4722 C   0  0  0  0  0  0  0  0  0  0  0  0
    2.6155   -4.4542    2.7218 C   0  0  0  0  0  0  0  0  0  0  0  0
    2.3873   -5.3061    1.5498 N   0  0  0  0  0  0  0  0  0  0  0  0
    3.1930   -6.4298    1.3621 C   0  0  0  0  0  0  0  0  0  0  0  0
    2.9967   -7.2646    0.2404 C   0  0  0  0  0  0  0  0  0  0  0  0
    3.7300   -8.4264    0.0773 C   0  0  0  0  0  0  0  0  0  0  0  0
    4.1768   -6.8189    2.2999 C   0  0  0  0  0  0  0  0  0  0  0  0
    4.9012   -7.9834    2.1297 C   0  0  0  0  0  0  0  0  0  0  0  0
    4.6842   -8.8317    1.0296 C   0  0  0  0  0  0  0  0  0  0  0  0
    5.4556  -10.0626    0.8019 C   0  0  0  0  0  0  0  0  0  0  0  0
    5.6083  -10.4396   -0.4634 N   0  0  0  0  0  0  0  0  0  0  0  0
    6.7345   -9.7819   -0.9383 N   0  0  0  0  0  0  0  0  0  0  0  0
    6.6909   -9.5096   -2.3204 C   0  0  0  0  0  0  0  0  0  0  0  0
    5.5034   -9.8292   -2.8833 N   0  0  0  0  0  0  0  0  0  0  0  0
    5.3094   -9.7158   -4.3201 C   0  0  0  0  0  0  0  0  0  0  0  0
    7.6438   -9.0092   -2.9164 O   0  0  0  0  0  0  0  0  0  0  0  0
    8.0385   -9.9484   -0.2691 C   0  0  1  0  0  0  0  0  0  0  0  0
    8.3949   -8.7690    0.6376 C   0  0  0  0  0  0  0  0  0  0  0  0
    8.0849  -11.3222    0.4218 C   0  0  0  0  0  0  0  0  0  0  0  0
    7.3290  -11.4359    1.7161 C   0  0  0  0  0  0  0  0  0  0  0  0
    7.8865  -12.1480    2.7802 C   0  0  0  0  0  0  0  0  0  0  0  0
    7.2328  -12.2783    3.9968 C   0  0  0  0  0  0  0  0  0  0  0  0
    7.7258  -12.9570    5.0635 O   0  0  0  0  0  0  0  0  0  0  0  0
    9.0001  -13.5902    4.8957 C   0  0  0  0  0  0  0  0  0  0  0  0
    5.9590  -11.6750    4.1772 C   0  0  0  0  0  0  0  0  0  0  0  0
    5.3764  -11.8457    5.3910 O   0  0  0  0  0  0  0  0  0  0  0  0
    4.0765  -11.2718    5.5740 C   0  0  0  0  0  0  0  0  0  0  0  0
    5.4016  -10.9615    3.1328 C   0  0  0  0  0  0  0  0  0  0  0  0
    6.0673  -10.8208    1.8960 C   0  0  0  0  0  0  0  0  0  0  0  0
    3.0708   -0.8034    2.5883 O   0  0  0  0  0  0  0  0  0  0  0  0
   -7.6578   10.0433   -1.7916 C   0  0  0  0  0  0  0  0  0  0  0  0
   -7.4717   11.3606   -2.4342 C   0  0  0  0  0  0  0  0  0  0  0  0
   -6.7299   11.6873   -3.3526 O   0  0  0  0  0  0  0  0  0  0  0  0
   -9.9599   12.0801   -0.0851 O   0  0  0  0  0  0  0  0  0  0  0  0
   -9.8880   13.8645   -2.8359 C   0  0  0  0  0  0  0  0  0  0  0  0
   -9.9588   15.3163   -3.2915 C   0  0  0  0  0  0  0  0  0  0  0  0
   -8.9158   15.8123   -1.1249 N   0  0  0  0  0  0  0  0  0  0  0  0
   -9.6932   16.2896   -2.1748 C   0  0  0  0  0  0  0  0  0  0  0  0
  -10.0957   17.4431   -2.1697 O   0  0  0  0  0  0  0  0  0  0  0  0
   -7.7399   13.8305   -2.8778 H   0  0  0  0  0  0  0  0  0  0  0  0
   -9.7669    9.2136    0.7644 H   0  0  0  0  0  0  0  0  0  0  0  0
   -8.6502    7.0021    0.3514 H   0  0  0  0  0  0  0  0  0  0  0  0
   -6.9437    6.7481   -1.3735 H   0  0  0  0  0  0  0  0  0  0  0  0
   -5.8302    9.5739   -3.4959 H   0  0  0  0  0  0  0  0  0  0  0  0
   -5.9158    6.6295   -3.2755 H   0  0  0  0  0  0  0  0  0  0  0  0
   -4.8349    7.6114   -4.2737 H   0  0  0  0  0  0  0  0  0  0  0  0
   -3.4556    8.1892   -2.2864 H   0  0  0  0  0  0  0  0  0  0  0  0
   -4.5734    7.2901   -1.2301 H   0  0  0  0  0  0  0  0  0  0  0  0
   -1.7186    6.6076   -1.5558 H   0  0  0  0  0  0  0  0  0  0  0  0
   -2.8987    5.6405   -0.6287 H   0  0  0  0  0  0  0  0  0  0  0  0
   -2.5595    3.7294   -2.2162 H   0  0  0  0  0  0  0  0  0  0  0  0
   -1.3177    4.6778   -3.0795 H   0  0  0  0  0  0  0  0  0  0  0  0
   -0.8956    2.1297   -1.6103 H   0  0  0  0  0  0  0  0  0  0  0  0
    0.4541    3.0517   -2.3264 H   0  0  0  0  0  0  0  0  0  0  0  0
    1.4624    3.3482   -0.0657 H   0  0  0  0  0  0  0  0  0  0  0  0
    0.0539    2.5404    0.6744 H   0  0  0  0  0  0  0  0  0  0  0  0
    2.7852    1.4103    0.9565 H   0  0  0  0  0  0  0  0  0  0  0  0
    1.2463    0.7177    1.5137 H   0  0  0  0  0  0  0  0  0  0  0  0
    1.5661   -1.1910   -0.1103 H   0  0  0  0  0  0  0  0  0  0  0  0
    3.1635   -0.5581   -0.5158 H   0  0  0  0  0  0  0  0  0  0  0  0
    2.9408   -2.8249   -0.7523 H   0  0  0  0  0  0  0  0  0  0  0  0
    4.1052   -4.0064   -0.1304 H   0  0  0  0  0  0  0  0  0  0  0  0
    1.1380   -3.9142    0.6275 H   0  0  0  0  0  0  0  0  0  0  0  0
    1.8735   -5.0640   -0.5011 H   0  0  0  0  0  0  0  0  0  0  0  0
    4.6874   -4.0229    2.2556 H   0  0  0  0  0  0  0  0  0  0  0  0
    3.9224   -2.8168    3.3351 H   0  0  0  0  0  0  0  0  0  0  0  0
    2.7938   -5.0645    3.6140 H   0  0  0  0  0  0  0  0  0  0  0  0
    1.6944   -3.8792    2.8979 H   0  0  0  0  0  0  0  0  0  0  0  0
    2.2448   -7.0106   -0.5010 H   0  0  0  0  0  0  0  0  0  0  0  0
    3.5516   -9.0509   -0.7947 H   0  0  0  0  0  0  0  0  0  0  0  0
    4.3907   -6.2006    3.1630 H   0  0  0  0  0  0  0  0  0  0  0  0
    5.6538   -8.2484    2.8686 H   0  0  0  0  0  0  0  0  0  0  0  0
    4.9086  -10.4455   -2.3443 H   0  0  0  0  0  0  0  0  0  0  0  0
    5.5855   -8.7119   -4.6559 H   0  0  0  0  0  0  0  0  0  0  0  0
    4.2504   -9.8740   -4.5395 H   0  0  0  0  0  0  0  0  0  0  0  0
    5.9051  -10.4463   -4.8853 H   0  0  0  0  0  0  0  0  0  0  0  0
    8.7749   -9.9619   -1.0848 H   0  0  0  0  0  0  0  0  0  0  0  0
    8.4744   -7.8486    0.0484 H   0  0  0  0  0  0  0  0  0  0  0  0
    9.3645   -8.9695    1.1060 H   0  0  0  0  0  0  0  0  0  0  0  0
    7.6587   -8.6067    1.4358 H   0  0  0  0  0  0  0  0  0  0  0  0
    7.6953  -12.0524   -0.3013 H   0  0  0  0  0  0  0  0  0  0  0  0
    9.1329  -11.5769    0.6103 H   0  0  0  0  0  0  0  0  0  0  0  0
    8.8627  -12.6034    2.6450 H   0  0  0  0  0  0  0  0  0  0  0  0
    9.2144  -14.0804    5.8489 H   0  0  0  0  0  0  0  0  0  0  0  0
    9.7839  -12.8525    4.6780 H   0  0  0  0  0  0  0  0  0  0  0  0
    8.9647  -14.3429    4.0969 H   0  0  0  0  0  0  0  0  0  0  0  0
    3.7801  -11.5248    6.5954 H   0  0  0  0  0  0  0  0  0  0  0  0
    3.3533  -11.6986    4.8658 H   0  0  0  0  0  0  0  0  0  0  0  0
    4.1092  -10.1794    5.4611 H   0  0  0  0  0  0  0  0  0  0  0  0
    4.4354  -10.4786    3.2487 H   0  0  0  0  0  0  0  0  0  0  0  0
   -9.9673   13.1905   -3.6946 H   0  0  0  0  0  0  0  0  0  0  0  0
  -10.7046   13.6323   -2.1429 H   0  0  0  0  0  0  0  0  0  0  0  0
   -9.2072   15.5082   -4.0713 H   0  0  0  0  0  0  0  0  0  0  0  0
  -10.9346   15.5569   -3.7228 H   0  0  0  0  0  0  0  0  0  0  0  0
   -8.7435   16.4705   -0.3694 H   0  0  0  0  0  0  0  0  0  0  0  0
  1  2  2  0
  2  3  1  0
  3  4  1  0
  4  5  1  0
  5  6  1  0
  6  7  2  0
  7  8  1  0
  8  9  2  0
  9 10  1  0
 10 11  1  0
 11 12  1  0
 12 13  1  0
 13 14  1  0
 14 15  1  0
 15 16  1  0
 16 17  1  0
 17 18  1  0
 18 19  1  0
 19 20  1  0
 20 21  1  0
 21 22  1  0
 22 23  1  0
 23 24  1  0
 24 25  1  0
 25 26  1  0
 24 27  1  0
 27 28  1  0
 28 29  1  0
 26 29  1  0
 29 30  1  0
 30 31  2  0
 31 32  1  0
 30 33  1  0
 33 34  2  0
 32 35  2  0
 34 35  1  0
 35 36  1  0
 36 37  1  0
 37 38  1  0
 38 39  1  0
 39 40  1  0
 40 41  1  0
 39 42  2  0
 38 43  1  0
 43 44  1  0
 43 45  1  0
 45 46  1  0
 46 47  2  0
 47 48  1  0
 48 49  1  0
 49 50  1  0
 48 51  2  0
 51 52  1  0
 52 53  1  0
 51 54  1  0
 54 55  2  0
 46 55  1  0
 36 55  1  0
 23 56  2  0
 10 57  2  0
  6 57  1  0
 57 58  1  0
  4 58  1  0
 58 59  2  0
  5 60  2  0
  3 61  1  0
 61 62  1  0
  2 63  1  0
 63 64  1  0
 62 64  1  0
 64 65  2  0
  3 66  1  6
  7 67  1  0
  8 68  1  0
  9 69  1  0
 11 70  1  0
 12 71  1  0
 12 72  1  0
 13 73  1  0
 13 74  1  0
 15 75  1  0
 15 76  1  0
 16 77  1  0
 16 78  1  0
 18 79  1  0
 18 80  1  0
 19 81  1  0
 19 82  1  0
 21 83  1  0
 21 84  1  0
 22 85  1  0
 22 86  1  0
 25 87  1  0
 25 88  1  0
 26 89  1  0
 26 90  1  0
 27 91  1  0
 27 92  1  0
 28 93  1  0
 28 94  1  0
 31 95  1  0
 32 96  1  0
 33 97  1  0
 34 98  1  0
 40 99  1  0
 41100  1  0
 41101  1  0
 41102  1  0
 43103  1  6
 44104  1  0
 44105  1  0
 44106  1  0
 45107  1  0
 45108  1  0
 47109  1  0
 50110  1  0
 50111  1  0
 50112  1  0
 53113  1  0
 53114  1  0
 53115  1  0
 54116  1  0
 61117  1  0
 61118  1  0
 62119  1  0
 62120  1  0
 63121  1  0
M  END
>  <ANI_energy(hartree)>  (1) 
-3051.599001810445

>  <ANI_energy(kcal/mol)>  (1) 
-1914905.8380270705

$$$$
