
     RDKit          3D

121127  0  0  1  0  0  0  0  0999 V2000
   -7.7520   14.8011   -1.1477 O   0  0  0  0  0  0  0  0  0  0  0  0
   -8.1559   14.9744   -2.2842 C   0  0  0  0  0  0  0  0  0  0  0  0
   -8.1722   13.9037   -3.3719 C   0  0  1  0  0  0  0  0  0  0  0  0
   -8.2276   12.5570   -2.8021 N   0  0  0  0  0  0  0  0  0  0  0  0
   -9.2573   12.0892   -1.9702 C   0  0  0  0  0  0  0  0  0  0  0  0
   -8.9257   10.6634   -1.7110 C   0  0  0  0  0  0  0  0  0  0  0  0
   -9.5964    9.7365   -0.9267 C   0  0  0  0  0  0  0  0  0  0  0  0
   -9.0535    8.4533   -0.8662 C   0  0  0  0  0  0  0  0  0  0  0  0
   -7.8883    8.1100   -1.5648 C   0  0  0  0  0  0  0  0  0  0  0  0
   -7.2097    9.0507   -2.3661 C   0  0  0  0  0  0  0  0  0  0  0  0
   -6.0882    8.7513   -3.0798 N   0  0  0  0  0  0  0  0  0  0  0  0
   -5.4102    7.4698   -3.0225 C   0  0  0  0  0  0  0  0  0  0  0  0
   -4.5815    7.2520   -1.7531 C   0  0  0  0  0  0  0  0  0  0  0  0
   -3.9987    5.9546   -1.8534 O   0  0  0  0  0  0  0  0  0  0  0  0
   -3.1981    5.6141   -0.7257 C   0  0  0  0  0  0  0  0  0  0  0  0
   -2.5446    4.2808   -1.0395 C   0  0  0  0  0  0  0  0  0  0  0  0
   -1.7394    3.9200    0.0797 O   0  0  0  0  0  0  0  0  0  0  0  0
   -0.9774    2.7423   -0.1705 C   0  0  0  0  0  0  0  0  0  0  0  0
   -0.2046    2.4107    1.0927 C   0  0  0  0  0  0  0  0  0  0  0  0
    0.5997    1.2761    0.7895 O   0  0  0  0  0  0  0  0  0  0  0  0
    1.3509    0.8009    1.9055 C   0  0  0  0  0  0  0  0  0  0  0  0
    2.2612   -0.2975    1.3802 C   0  0  0  0  0  0  0  0  0  0  0  0
    3.1120   -0.9262    2.4748 C   0  0  0  0  0  0  0  0  0  0  0  0
    4.0604   -1.8239    2.0864 N   0  0  0  0  0  0  0  0  0  0  0  0
    4.2573   -2.3588    0.7411 C   0  0  0  0  0  0  0  0  0  0  0  0
    3.9454   -3.8517    0.7041 C   0  0  0  0  0  0  0  0  0  0  0  0
    4.8708   -2.5300    3.0794 C   0  0  0  0  0  0  0  0  0  0  0  0
    4.5332   -4.0143    3.0590 C   0  0  0  0  0  0  0  0  0  0  0  0
    4.7473   -4.5668    1.7078 N   0  0  0  0  0  0  0  0  0  0  0  0
    4.8489   -5.9563    1.5944 C   0  0  0  0  0  0  0  0  0  0  0  0
    4.1448   -6.6960    0.6231 C   0  0  0  0  0  0  0  0  0  0  0  0
    4.3179   -8.0670    0.5152 C   0  0  0  0  0  0  0  0  0  0  0  0
    5.7281   -6.6567    2.4473 C   0  0  0  0  0  0  0  0  0  0  0  0
    5.8950   -8.0220    2.3318 C   0  0  0  0  0  0  0  0  0  0  0  0
    5.1831   -8.7676    1.3753 C   0  0  0  0  0  0  0  0  0  0  0  0
    5.3709  -10.2139    1.1811 C   0  0  0  0  0  0  0  0  0  0  0  0
    5.1862  -10.6704   -0.0544 N   0  0  0  0  0  0  0  0  0  0  0  0
    6.4083  -10.5482   -0.7014 N   0  0  0  0  0  0  0  0  0  0  0  0
    6.2995  -10.2956   -2.0823 C   0  0  0  0  0  0  0  0  0  0  0  0
    5.0220  -10.1120   -2.4858 N   0  0  0  0  0  0  0  0  0  0  0  0
    4.7075   -9.9311   -3.8940 C   0  0  0  0  0  0  0  0  0  0  0  0
    7.2886  -10.2299   -2.8109 O   0  0  0  0  0  0  0  0  0  0  0  0
    7.6112  -11.2208   -0.1773 C   0  0  1  0  0  0  0  0  0  0  0  0
    8.5469  -10.2635    0.5633 C   0  0  0  0  0  0  0  0  0  0  0  0
    7.1903  -12.4618    0.6278 C   0  0  0  0  0  0  0  0  0  0  0  0
    6.6399  -12.2029    2.0020 C   0  0  0  0  0  0  0  0  0  0  0  0
    6.9898  -13.0520    3.0544 C   0  0  0  0  0  0  0  0  0  0  0  0
    6.5084  -12.8614    4.3413 C   0  0  0  0  0  0  0  0  0  0  0  0
    6.8086  -13.6580    5.3982 O   0  0  0  0  0  0  0  0  0  0  0  0
    7.6767  -14.7702    5.1466 C   0  0  0  0  0  0  0  0  0  0  0  0
    5.6416  -11.7675    4.6101 C   0  0  0  0  0  0  0  0  0  0  0  0
    5.2080  -11.6416    5.8904 O   0  0  0  0  0  0  0  0  0  0  0  0
    4.3004  -10.5672    6.1633 C   0  0  0  0  0  0  0  0  0  0  0  0
    5.3003  -10.9125    3.5786 C   0  0  0  0  0  0  0  0  0  0  0  0
    5.7805  -11.1093    2.2655 C   0  0  0  0  0  0  0  0  0  0  0  0
    2.9383   -0.6295    3.6593 O   0  0  0  0  0  0  0  0  0  0  0  0
   -7.7666   10.3503   -2.4114 C   0  0  0  0  0  0  0  0  0  0  0  0
   -7.3071   11.5541   -3.1349 C   0  0  0  0  0  0  0  0  0  0  0  0
   -6.3436   11.7032   -3.8766 O   0  0  0  0  0  0  0  0  0  0  0  0
  -10.2000   12.7463   -1.5737 O   0  0  0  0  0  0  0  0  0  0  0  0
   -9.2746   14.1576   -4.4048 C   0  0  0  0  0  0  0  0  0  0  0  0
   -9.0899   15.5470   -5.0020 C   0  0  0  0  0  0  0  0  0  0  0  0
   -8.5822   16.2275   -2.6996 N   0  0  0  0  0  0  0  0  0  0  0  0
   -9.0283   16.6260   -3.9552 C   0  0  0  0  0  0  0  0  0  0  0  0
   -9.3153   17.7947   -4.1661 O   0  0  0  0  0  0  0  0  0  0  0  0
   -7.2002   13.9629   -3.8795 H   0  0  0  0  0  0  0  0  0  0  0  0
  -10.4997   10.0097   -0.3907 H   0  0  0  0  0  0  0  0  0  0  0  0
   -9.5421    7.6918   -0.2643 H   0  0  0  0  0  0  0  0  0  0  0  0
   -7.5078    7.0958   -1.4722 H   0  0  0  0  0  0  0  0  0  0  0  0
   -5.6484    9.5246   -3.5612 H   0  0  0  0  0  0  0  0  0  0  0  0
   -6.1421    6.6563   -3.1109 H   0  0  0  0  0  0  0  0  0  0  0  0
   -4.7405    7.4078   -3.8877 H   0  0  0  0  0  0  0  0  0  0  0  0
   -3.7915    8.0175   -1.6693 H   0  0  0  0  0  0  0  0  0  0  0  0
   -5.2170    7.3260   -0.8542 H   0  0  0  0  0  0  0  0  0  0  0  0
   -2.4225    6.3766   -0.5474 H   0  0  0  0  0  0  0  0  0  0  0  0
   -3.8127    5.5282    0.1846 H   0  0  0  0  0  0  0  0  0  0  0  0
   -3.3164    3.5172   -1.2257 H   0  0  0  0  0  0  0  0  0  0  0  0
   -1.9292    4.3749   -1.9485 H   0  0  0  0  0  0  0  0  0  0  0  0
   -1.6353    1.9001   -0.4383 H   0  0  0  0  0  0  0  0  0  0  0  0
   -0.2730    2.9048   -1.0013 H   0  0  0  0  0  0  0  0  0  0  0  0
    0.4210    3.2683    1.3876 H   0  0  0  0  0  0  0  0  0  0  0  0
   -0.9013    2.1931    1.9184 H   0  0  0  0  0  0  0  0  0  0  0  0
    1.9432    1.6161    2.3495 H   0  0  0  0  0  0  0  0  0  0  0  0
    0.6783    0.4135    2.6858 H   0  0  0  0  0  0  0  0  0  0  0  0
    1.6409   -1.0756    0.9133 H   0  0  0  0  0  0  0  0  0  0  0  0
    2.9018    0.1182    0.5911 H   0  0  0  0  0  0  0  0  0  0  0  0
    3.6421   -1.8339    0.0078 H   0  0  0  0  0  0  0  0  0  0  0  0
    5.3116   -2.2183    0.4639 H   0  0  0  0  0  0  0  0  0  0  0  0
    2.8650   -4.0108    0.8783 H   0  0  0  0  0  0  0  0  0  0  0  0
    4.1931   -4.2232   -0.2955 H   0  0  0  0  0  0  0  0  0  0  0  0
    5.9330   -2.4007    2.8260 H   0  0  0  0  0  0  0  0  0  0  0  0
    4.6827   -2.0997    4.0664 H   0  0  0  0  0  0  0  0  0  0  0  0
    5.1631   -4.5320    3.7862 H   0  0  0  0  0  0  0  0  0  0  0  0
    3.4827   -4.1604    3.3741 H   0  0  0  0  0  0  0  0  0  0  0  0
    3.4475   -6.2013   -0.0445 H   0  0  0  0  0  0  0  0  0  0  0  0
    3.7614   -8.6185   -0.2390 H   0  0  0  0  0  0  0  0  0  0  0  0
    6.3011   -6.1108    3.1898 H   0  0  0  0  0  0  0  0  0  0  0  0
    6.5882   -8.5266    3.0009 H   0  0  0  0  0  0  0  0  0  0  0  0
    4.3045  -10.4313   -1.8478 H   0  0  0  0  0  0  0  0  0  0  0  0
    5.3130   -9.1202   -4.3099 H   0  0  0  0  0  0  0  0  0  0  0  0
    3.6534   -9.6551   -3.9803 H   0  0  0  0  0  0  0  0  0  0  0  0
    4.8902  -10.8385   -4.4864 H   0  0  0  0  0  0  0  0  0  0  0  0
    8.1511  -11.5735   -1.0673 H   0  0  0  0  0  0  0  0  0  0  0  0
    8.9531   -9.5193   -0.1310 H   0  0  0  0  0  0  0  0  0  0  0  0
    9.3784  -10.8405    0.9820 H   0  0  0  0  0  0  0  0  0  0  0  0
    8.0478   -9.7345    1.3857 H   0  0  0  0  0  0  0  0  0  0  0  0
    6.4427  -12.9920    0.0211 H   0  0  0  0  0  0  0  0  0  0  0  0
    8.0584  -13.1222    0.7213 H   0  0  0  0  0  0  0  0  0  0  0  0
    7.6634  -13.8790    2.8516 H   0  0  0  0  0  0  0  0  0  0  0  0
    8.6589  -14.4337    4.7893 H   0  0  0  0  0  0  0  0  0  0  0  0
    7.2327  -15.4611    4.4177 H   0  0  0  0  0  0  0  0  0  0  0  0
    7.7929  -15.2782    6.1075 H   0  0  0  0  0  0  0  0  0  0  0  0
    4.0581  -10.6443    7.2264 H   0  0  0  0  0  0  0  0  0  0  0  0
    3.3820  -10.6667    5.5688 H   0  0  0  0  0  0  0  0  0  0  0  0
    4.7703   -9.5941    5.9640 H   0  0  0  0  0  0  0  0  0  0  0  0
    4.6523  -10.0602    3.7615 H   0  0  0  0  0  0  0  0  0  0  0  0
   -9.1960   13.3949   -5.1860 H   0  0  0  0  0  0  0  0  0  0  0  0
  -10.2586   14.0635   -3.9313 H   0  0  0  0  0  0  0  0  0  0  0  0
   -8.1487   15.5963   -5.5693 H   0  0  0  0  0  0  0  0  0  0  0  0
   -9.8954   15.7976   -5.6979 H   0  0  0  0  0  0  0  0  0  0  0  0
   -8.5421   16.9586   -1.9941 H   0  0  0  0  0  0  0  0  0  0  0  0
  1  2  2  0
  2  3  1  0
  3  4  1  0
  4  5  1  0
  5  6  1  0
  6  7  1  0
  7  8  2  0
  8  9  1  0
  9 10  2  0
 10 11  1  0
 11 12  1  0
 12 13  1  0
 13 14  1  0
 14 15  1  0
 15 16  1  0
 16 17  1  0
 17 18  1  0
 18 19  1  0
 19 20  1  0
 20 21  1  0
 21 22  1  0
 22 23  1  0
 23 24  1  0
 24 25  1  0
 25 26  1  0
 24 27  1  0
 27 28  1  0
 26 29  1  0
 28 29  1  0
 29 30  1  0
 30 31  2  0
 31 32  1  0
 30 33  1  0
 33 34  2  0
 32 35  2  0
 34 35  1  0
 35 36  1  0
 36 37  1  0
 37 38  1  0
 38 39  1  0
 39 40  1  0
 40 41  1  0
 39 42  2  0
 38 43  1  0
 43 44  1  0
 43 45  1  0
 45 46  1  0
 46 47  2  0
 47 48  1  0
 48 49  1  0
 49 50  1  0
 48 51  2  0
 51 52  1  0
 52 53  1  0
 51 54  1  0
 54 55  2  0
 46 55  1  0
 36 55  1  0
 23 56  2  0
  6 57  2  0
 10 57  1  0
 57 58  1  0
  4 58  1  0
 58 59  2  0
  5 60  2  0
  3 61  1  0
 61 62  1  0
  2 63  1  0
 62 64  1  0
 63 64  1  0
 64 65  2  0
  3 66  1  6
  7 67  1  0
  8 68  1  0
  9 69  1  0
 11 70  1  0
 12 71  1  0
 12 72  1  0
 13 73  1  0
 13 74  1  0
 15 75  1  0
 15 76  1  0
 16 77  1  0
 16 78  1  0
 18 79  1  0
 18 80  1  0
 19 81  1  0
 19 82  1  0
 21 83  1  0
 21 84  1  0
 22 85  1  0
 22 86  1  0
 25 87  1  0
 25 88  1  0
 26 89  1  0
 26 90  1  0
 27 91  1  0
 27 92  1  0
 28 93  1  0
 28 94  1  0
 31 95  1  0
 32 96  1  0
 33 97  1  0
 34 98  1  0
 40 99  1  0
 41100  1  0
 41101  1  0
 41102  1  0
 43103  1  6
 44104  1  0
 44105  1  0
 44106  1  0
 45107  1  0
 45108  1  0
 47109  1  0
 50110  1  0
 50111  1  0
 50112  1  0
 53113  1  0
 53114  1  0
 53115  1  0
 54116  1  0
 61117  1  0
 61118  1  0
 62119  1  0
 62120  1  0
 63121  1  0
M  END
>  <ANI_energy(hartree)>  (1) 
-3051.5988682960406

>  <ANI_energy(kcal/mol)>  (1) 
-1914905.7542455802

$$$$
