
     RDKit          3D

121127  0  0  1  0  0  0  0  0999 V2000
   -6.0591   14.4781   -2.3471 O   0  0  0  0  0  0  0  0  0  0  0  0
   -7.1468   14.2863   -2.8615 C   0  0  0  0  0  0  0  0  0  0  0  0
   -7.8235   12.9231   -2.9741 C   0  0  1  0  0  0  0  0  0  0  0  0
   -7.3741   12.0114   -1.9214 N   0  0  0  0  0  0  0  0  0  0  0  0
   -7.5176   12.2587   -0.5474 C   0  0  0  0  0  0  0  0  0  0  0  0
   -7.0252   11.0259    0.1199 C   0  0  0  0  0  0  0  0  0  0  0  0
   -6.9116   10.7525    1.4748 C   0  0  0  0  0  0  0  0  0  0  0  0
   -6.4174    9.4960    1.8232 C   0  0  0  0  0  0  0  0  0  0  0  0
   -6.0568    8.5508    0.8543 C   0  0  0  0  0  0  0  0  0  0  0  0
   -6.1787    8.8261   -0.5234 C   0  0  0  0  0  0  0  0  0  0  0  0
   -5.8604    7.9187   -1.4892 N   0  0  0  0  0  0  0  0  0  0  0  0
   -5.3757    6.5798   -1.2095 C   0  0  0  0  0  0  0  0  0  0  0  0
   -3.8842    6.5142   -0.8658 C   0  0  0  0  0  0  0  0  0  0  0  0
   -3.6114    5.1882   -0.4136 O   0  0  0  0  0  0  0  0  0  0  0  0
   -2.2272    4.9518   -0.1689 C   0  0  0  0  0  0  0  0  0  0  0  0
   -2.1351    3.6847    0.6618 C   0  0  0  0  0  0  0  0  0  0  0  0
   -0.7559    3.4558    0.9367 O   0  0  0  0  0  0  0  0  0  0  0  0
   -0.5610    2.4945    1.9731 C   0  0  0  0  0  0  0  0  0  0  0  0
    0.9170    2.2109    2.1113 C   0  0  0  0  0  0  0  0  0  0  0  0
    1.3461    1.4757    0.9680 O   0  0  0  0  0  0  0  0  0  0  0  0
    2.7241    1.1108    1.0211 C   0  0  0  0  0  0  0  0  0  0  0  0
    2.9428    0.0615   -0.0560 C   0  0  0  0  0  0  0  0  0  0  0  0
    4.3691   -0.4703   -0.0582 C   0  0  0  0  0  0  0  0  0  0  0  0
    4.6573   -1.4896   -0.9234 N   0  0  0  0  0  0  0  0  0  0  0  0
    3.6643   -2.3038   -1.6253 C   0  0  0  0  0  0  0  0  0  0  0  0
    3.4399   -3.6177   -0.8853 C   0  0  0  0  0  0  0  0  0  0  0  0
    5.9305   -2.2041   -0.8058 C   0  0  0  0  0  0  0  0  0  0  0  0
    5.7324   -3.5191   -0.0587 C   0  0  0  0  0  0  0  0  0  0  0  0
    4.7180   -4.3469   -0.7323 N   0  0  0  0  0  0  0  0  0  0  0  0
    4.6170   -5.6830   -0.3200 C   0  0  0  0  0  0  0  0  0  0  0  0
    3.7677   -6.5614   -1.0227 C   0  0  0  0  0  0  0  0  0  0  0  0
    3.6732   -7.8946   -0.6667 C   0  0  0  0  0  0  0  0  0  0  0  0
    5.3644   -6.2086    0.7550 C   0  0  0  0  0  0  0  0  0  0  0  0
    5.2459   -7.5380    1.1195 C   0  0  0  0  0  0  0  0  0  0  0  0
    4.3869   -8.4119    0.4306 C   0  0  0  0  0  0  0  0  0  0  0  0
    4.2641   -9.8402    0.7600 C   0  0  0  0  0  0  0  0  0  0  0  0
    3.9478  -10.6550   -0.2409 N   0  0  0  0  0  0  0  0  0  0  0  0
    5.1420  -11.0128   -0.8522 N   0  0  0  0  0  0  0  0  0  0  0  0
    5.0099  -11.2946   -2.2271 C   0  0  0  0  0  0  0  0  0  0  0  0
    3.7678  -11.0461   -2.7021 N   0  0  0  0  0  0  0  0  0  0  0  0
    3.4231  -11.3887   -4.0734 C   0  0  0  0  0  0  0  0  0  0  0  0
    5.9545  -11.7010   -2.9024 O   0  0  0  0  0  0  0  0  0  0  0  0
    6.2148  -11.6664   -0.0778 C   0  0  1  0  0  0  0  0  0  0  0  0
    7.3359  -10.7022    0.3136 C   0  0  0  0  0  0  0  0  0  0  0  0
    5.5954  -12.4393    1.0997 C   0  0  0  0  0  0  0  0  0  0  0  0
    5.1563  -11.6108    2.2747 C   0  0  0  0  0  0  0  0  0  0  0  0
    5.4014  -12.0678    3.5715 C   0  0  0  0  0  0  0  0  0  0  0  0
    5.0140  -11.3420    4.6886 C   0  0  0  0  0  0  0  0  0  0  0  0
    5.2273  -11.7347    5.9700 O   0  0  0  0  0  0  0  0  0  0  0  0
    5.8994  -12.9858    6.1602 C   0  0  0  0  0  0  0  0  0  0  0  0
    4.3439  -10.0999    4.5224 C   0  0  0  0  0  0  0  0  0  0  0  0
    3.9758   -9.4558    5.6589 O   0  0  0  0  0  0  0  0  0  0  0  0
    3.2434   -8.2343    5.5050 C   0  0  0  0  0  0  0  0  0  0  0  0
    4.1168   -9.6279    3.2434 C   0  0  0  0  0  0  0  0  0  0  0  0
    4.5187  -10.3591    2.1050 C   0  0  0  0  0  0  0  0  0  0  0  0
    5.2236    0.0128    0.6866 O   0  0  0  0  0  0  0  0  0  0  0  0
   -6.6662   10.1100   -0.8628 C   0  0  0  0  0  0  0  0  0  0  0  0
   -6.8998   10.7201   -2.1890 C   0  0  0  0  0  0  0  0  0  0  0  0
   -6.7358   10.2519   -3.3084 O   0  0  0  0  0  0  0  0  0  0  0  0
   -7.9609   13.2780   -0.0550 O   0  0  0  0  0  0  0  0  0  0  0  0
   -9.3489   13.0471   -3.0372 C   0  0  0  0  0  0  0  0  0  0  0  0
   -9.7317   13.9533   -4.2003 C   0  0  0  0  0  0  0  0  0  0  0  0
   -7.8379   15.3282   -3.4628 N   0  0  0  0  0  0  0  0  0  0  0  0
   -9.0519   15.2944   -4.1403 C   0  0  0  0  0  0  0  0  0  0  0  0
   -9.4927   16.3049   -4.6669 O   0  0  0  0  0  0  0  0  0  0  0  0
   -7.4708   12.4786   -3.9142 H   0  0  0  0  0  0  0  0  0  0  0  0
   -7.1968   11.4905    2.2177 H   0  0  0  0  0  0  0  0  0  0  0  0
   -6.3097    9.2331    2.8723 H   0  0  0  0  0  0  0  0  0  0  0  0
   -5.6703    7.5898    1.1857 H   0  0  0  0  0  0  0  0  0  0  0  0
   -5.9324    8.2358   -2.4465 H   0  0  0  0  0  0  0  0  0  0  0  0
   -5.9458    6.1429   -0.3805 H   0  0  0  0  0  0  0  0  0  0  0  0
   -5.5603    5.9651   -2.0979 H   0  0  0  0  0  0  0  0  0  0  0  0
   -3.2729    6.7552   -1.7514 H   0  0  0  0  0  0  0  0  0  0  0  0
   -3.6332    7.2426   -0.0759 H   0  0  0  0  0  0  0  0  0  0  0  0
   -1.6759    4.8360   -1.1155 H   0  0  0  0  0  0  0  0  0  0  0  0
   -1.7753    5.7865    0.3904 H   0  0  0  0  0  0  0  0  0  0  0  0
   -2.7068    3.8227    1.5940 H   0  0  0  0  0  0  0  0  0  0  0  0
   -2.5713    2.8335    0.1155 H   0  0  0  0  0  0  0  0  0  0  0  0
   -0.9494    2.8856    2.9271 H   0  0  0  0  0  0  0  0  0  0  0  0
   -1.0919    1.5564    1.7412 H   0  0  0  0  0  0  0  0  0  0  0  0
    1.4724    3.1592    2.2020 H   0  0  0  0  0  0  0  0  0  0  0  0
    1.0857    1.6212    3.0268 H   0  0  0  0  0  0  0  0  0  0  0  0
    3.3663    1.9892    0.8508 H   0  0  0  0  0  0  0  0  0  0  0  0
    2.9805    0.6958    2.0080 H   0  0  0  0  0  0  0  0  0  0  0  0
    2.2403   -0.7669    0.1116 H   0  0  0  0  0  0  0  0  0  0  0  0
    2.7032    0.4864   -1.0414 H   0  0  0  0  0  0  0  0  0  0  0  0
    2.7255   -1.7593   -1.7554 H   0  0  0  0  0  0  0  0  0  0  0  0
    4.0614   -2.5276   -2.6243 H   0  0  0  0  0  0  0  0  0  0  0  0
    2.9956   -3.4231    0.1088 H   0  0  0  0  0  0  0  0  0  0  0  0
    2.7255   -4.2223   -1.4480 H   0  0  0  0  0  0  0  0  0  0  0  0
    6.2974   -2.4243   -1.8172 H   0  0  0  0  0  0  0  0  0  0  0  0
    6.6564   -1.5706   -0.2893 H   0  0  0  0  0  0  0  0  0  0  0  0
    6.6876   -4.0557   -0.0464 H   0  0  0  0  0  0  0  0  0  0  0  0
    5.4364   -3.3077    0.9851 H   0  0  0  0  0  0  0  0  0  0  0  0
    3.1959   -6.1949   -1.8706 H   0  0  0  0  0  0  0  0  0  0  0  0
    3.0045   -8.5489   -1.2205 H   0  0  0  0  0  0  0  0  0  0  0  0
    6.0271   -5.5676    1.3237 H   0  0  0  0  0  0  0  0  0  0  0  0
    5.8395   -7.9117    1.9512 H   0  0  0  0  0  0  0  0  0  0  0  0
    3.0351  -10.9578   -2.0095 H   0  0  0  0  0  0  0  0  0  0  0  0
    4.1198  -10.9069   -4.7662 H   0  0  0  0  0  0  0  0  0  0  0  0
    2.4166  -11.0169   -4.2810 H   0  0  0  0  0  0  0  0  0  0  0  0
    3.4486  -12.4722   -4.2556 H   0  0  0  0  0  0  0  0  0  0  0  0
    6.6506  -12.4036   -0.7667 H   0  0  0  0  0  0  0  0  0  0  0  0
    8.0861  -11.2549    0.8893 H   0  0  0  0  0  0  0  0  0  0  0  0
    6.9821   -9.8655    0.9303 H   0  0  0  0  0  0  0  0  0  0  0  0
    7.8150  -10.2936   -0.5835 H   0  0  0  0  0  0  0  0  0  0  0  0
    4.7393  -12.9983    0.6964 H   0  0  0  0  0  0  0  0  0  0  0  0
    6.3265  -13.1748    1.4496 H   0  0  0  0  0  0  0  0  0  0  0  0
    5.9155  -13.0157    3.6994 H   0  0  0  0  0  0  0  0  0  0  0  0
    5.3195  -13.8142    5.7316 H   0  0  0  0  0  0  0  0  0  0  0  0
    5.9796  -13.1177    7.2425 H   0  0  0  0  0  0  0  0  0  0  0  0
    6.9047  -12.9661    5.7184 H   0  0  0  0  0  0  0  0  0  0  0  0
    3.0144   -7.8948    6.5185 H   0  0  0  0  0  0  0  0  0  0  0  0
    2.3084   -8.4018    4.9533 H   0  0  0  0  0  0  0  0  0  0  0  0
    3.8485   -7.4747    4.9916 H   0  0  0  0  0  0  0  0  0  0  0  0
    3.6318   -8.6687    3.0865 H   0  0  0  0  0  0  0  0  0  0  0  0
   -9.7699   12.0467   -3.1797 H   0  0  0  0  0  0  0  0  0  0  0  0
   -9.7286   13.4459   -2.0897 H   0  0  0  0  0  0  0  0  0  0  0  0
   -9.4457   13.4898   -5.1561 H   0  0  0  0  0  0  0  0  0  0  0  0
  -10.8110   14.1241   -4.2396 H   0  0  0  0  0  0  0  0  0  0  0  0
   -7.3800   16.2353   -3.4249 H   0  0  0  0  0  0  0  0  0  0  0  0
  1  2  2  0
  2  3  1  0
  3  4  1  0
  4  5  1  0
  5  6  1  0
  6  7  2  0
  7  8  1  0
  8  9  2  0
  9 10  1  0
 10 11  1  0
 11 12  1  0
 12 13  1  0
 13 14  1  0
 14 15  1  0
 15 16  1  0
 16 17  1  0
 17 18  1  0
 18 19  1  0
 19 20  1  0
 20 21  1  0
 21 22  1  0
 22 23  1  0
 23 24  1  0
 24 25  1  0
 25 26  1  0
 24 27  1  0
 27 28  1  0
 26 29  1  0
 28 29  1  0
 29 30  1  0
 30 31  2  0
 31 32  1  0
 30 33  1  0
 33 34  2  0
 32 35  2  0
 34 35  1  0
 35 36  1  0
 36 37  1  0
 37 38  1  0
 38 39  1  0
 39 40  1  0
 40 41  1  0
 39 42  2  0
 38 43  1  0
 43 44  1  0
 43 45  1  0
 45 46  1  0
 46 47  2  0
 47 48  1  0
 48 49  1  0
 49 50  1  0
 48 51  2  0
 51 52  1  0
 52 53  1  0
 51 54  1  0
 54 55  2  0
 36 55  1  0
 46 55  1  0
 23 56  2  0
 10 57  2  0
  6 57  1  0
 57 58  1  0
  4 58  1  0
 58 59  2  0
  5 60  2  0
  3 61  1  0
 61 62  1  0
  2 63  1  0
 62 64  1  0
 63 64  1  0
 64 65  2  0
  3 66  1  6
  7 67  1  0
  8 68  1  0
  9 69  1  0
 11 70  1  0
 12 71  1  0
 12 72  1  0
 13 73  1  0
 13 74  1  0
 15 75  1  0
 15 76  1  0
 16 77  1  0
 16 78  1  0
 18 79  1  0
 18 80  1  0
 19 81  1  0
 19 82  1  0
 21 83  1  0
 21 84  1  0
 22 85  1  0
 22 86  1  0
 25 87  1  0
 25 88  1  0
 26 89  1  0
 26 90  1  0
 27 91  1  0
 27 92  1  0
 28 93  1  0
 28 94  1  0
 31 95  1  0
 32 96  1  0
 33 97  1  0
 34 98  1  0
 40 99  1  0
 41100  1  0
 41101  1  0
 41102  1  0
 43103  1  6
 44104  1  0
 44105  1  0
 44106  1  0
 45107  1  0
 45108  1  0
 47109  1  0
 50110  1  0
 50111  1  0
 50112  1  0
 53113  1  0
 53114  1  0
 53115  1  0
 54116  1  0
 61117  1  0
 61118  1  0
 62119  1  0
 62120  1  0
 63121  1  0
M  END
>  <ANI_energy(hartree)>  (1) 
-3051.597194836034

>  <ANI_energy(kcal/mol)>  (1) 
-1914904.7041343648

$$$$
