
     RDKit          3D

121127  0  0  1  0  0  0  0  0999 V2000
   -3.3950   14.3202    2.6309 O   0  0  0  0  0  0  0  0  0  0  0  0
   -3.5956   13.9346    1.4925 C   0  0  0  0  0  0  0  0  0  0  0  0
   -3.6311   12.4694    1.0655 C   0  0  1  0  0  0  0  0  0  0  0  0
   -3.9802   11.5917    2.1829 N   0  0  0  0  0  0  0  0  0  0  0  0
   -5.1839   11.6668    2.9016 C   0  0  0  0  0  0  0  0  0  0  0  0
   -5.1169   10.5537    3.8840 C   0  0  0  0  0  0  0  0  0  0  0  0
   -6.0400   10.1761    4.8474 C   0  0  0  0  0  0  0  0  0  0  0  0
   -5.7142    9.0736    5.6371 C   0  0  0  0  0  0  0  0  0  0  0  0
   -4.5066    8.3818    5.4726 C   0  0  0  0  0  0  0  0  0  0  0  0
   -3.5681    8.7746    4.5012 C   0  0  0  0  0  0  0  0  0  0  0  0
   -2.3676    8.1578    4.3322 N   0  0  0  0  0  0  0  0  0  0  0  0
   -1.9734    6.9650    5.0463 C   0  0  0  0  0  0  0  0  0  0  0  0
   -0.5179    6.6886    4.7403 C   0  0  0  0  0  0  0  0  0  0  0  0
   -0.3813    6.7011    3.3127 O   0  0  0  0  0  0  0  0  0  0  0  0
    0.9340    6.3885    2.8593 C   0  0  0  0  0  0  0  0  0  0  0  0
    1.0418    4.9550    2.3760 C   0  0  0  0  0  0  0  0  0  0  0  0
    0.7838    4.0828    3.4789 O   0  0  0  0  0  0  0  0  0  0  0  0
    0.4352    2.7469    3.1080 C   0  0  0  0  0  0  0  0  0  0  0  0
    1.6198    1.8570    2.7875 C   0  0  0  0  0  0  0  0  0  0  0  0
    2.2046    2.2464    1.5422 O   0  0  0  0  0  0  0  0  0  0  0  0
    3.3029    1.4106    1.1586 C   0  0  0  0  0  0  0  0  0  0  0  0
    2.8404    0.3131    0.2052 C   0  0  0  0  0  0  0  0  0  0  0  0
    3.9729   -0.6408   -0.1619 C   0  0  0  0  0  0  0  0  0  0  0  0
    3.6965   -1.6101   -1.0761 N   0  0  0  0  0  0  0  0  0  0  0  0
    2.4206   -1.8372   -1.7541 C   0  0  0  0  0  0  0  0  0  0  0  0
    1.9118   -3.2406   -1.4513 C   0  0  0  0  0  0  0  0  0  0  0  0
    4.7057   -2.6050   -1.4416 C   0  0  0  0  0  0  0  0  0  0  0  0
    4.1947   -4.0075   -1.1337 C   0  0  0  0  0  0  0  0  0  0  0  0
    2.9240   -4.2420   -1.8322 N   0  0  0  0  0  0  0  0  0  0  0  0
    2.4921   -5.5605   -2.0041 C   0  0  0  0  0  0  0  0  0  0  0  0
    1.4162   -5.8195   -2.8759 C   0  0  0  0  0  0  0  0  0  0  0  0
    1.0173   -7.1167   -3.1404 C   0  0  0  0  0  0  0  0  0  0  0  0
    3.1213   -6.6586   -1.3812 C   0  0  0  0  0  0  0  0  0  0  0  0
    2.6896   -7.9516   -1.6211 C   0  0  0  0  0  0  0  0  0  0  0  0
    1.6308   -8.2154   -2.5072 C   0  0  0  0  0  0  0  0  0  0  0  0
    1.2041   -9.5760   -2.8699 C   0  0  0  0  0  0  0  0  0  0  0  0
    0.7206   -9.7314   -4.0989 N   0  0  0  0  0  0  0  0  0  0  0  0
    1.8105   -9.9862   -4.9205 N   0  0  0  0  0  0  0  0  0  0  0  0
    1.6487   -9.5181   -6.2397 C   0  0  0  0  0  0  0  0  0  0  0  0
    0.5124   -8.8046   -6.4105 N   0  0  0  0  0  0  0  0  0  0  0  0
    0.1250   -8.3298   -7.7294 C   0  0  0  0  0  0  0  0  0  0  0  0
    2.4881   -9.7327   -7.1131 O   0  0  0  0  0  0  0  0  0  0  0  0
    2.6991  -11.1345   -4.6610 C   0  0  1  0  0  0  0  0  0  0  0  0
    4.0100  -10.7283   -3.9841 C   0  0  0  0  0  0  0  0  0  0  0  0
    1.9107  -12.2334   -3.9292 C   0  0  0  0  0  0  0  0  0  0  0  0
    1.6474  -12.0008   -2.4677 C   0  0  0  0  0  0  0  0  0  0  0  0
    1.7186  -13.0762   -1.5793 C   0  0  0  0  0  0  0  0  0  0  0  0
    1.4817  -12.9224   -0.2214 C   0  0  0  0  0  0  0  0  0  0  0  0
    1.5293  -13.9320    0.6840 O   0  0  0  0  0  0  0  0  0  0  0  0
    1.8469  -15.2368    0.1831 C   0  0  0  0  0  0  0  0  0  0  0  0
    1.1665  -11.6351    0.2928 C   0  0  0  0  0  0  0  0  0  0  0  0
    0.9384  -11.5611    1.6290 O   0  0  0  0  0  0  0  0  0  0  0  0
    0.5716  -10.2793    2.1528 C   0  0  0  0  0  0  0  0  0  0  0  0
    1.1118  -10.5596   -0.5749 C   0  0  0  0  0  0  0  0  0  0  0  0
    1.3348  -10.7168   -1.9603 C   0  0  0  0  0  0  0  0  0  0  0  0
    5.0838   -0.5323    0.3647 O   0  0  0  0  0  0  0  0  0  0  0  0
   -3.9160    9.8797    3.6976 C   0  0  0  0  0  0  0  0  0  0  0  0
   -3.1765   10.5174    2.5896 C   0  0  0  0  0  0  0  0  0  0  0  0
   -2.1000   10.2139    2.0913 O   0  0  0  0  0  0  0  0  0  0  0  0
   -6.0634   12.4873    2.7249 O   0  0  0  0  0  0  0  0  0  0  0  0
   -4.5267   12.2561   -0.1585 C   0  0  0  0  0  0  0  0  0  0  0  0
   -4.0391   13.1459   -1.2948 C   0  0  0  0  0  0  0  0  0  0  0  0
   -3.7462   14.8423    0.4547 N   0  0  0  0  0  0  0  0  0  0  0  0
   -3.9440   14.5947   -0.8994 C   0  0  0  0  0  0  0  0  0  0  0  0
   -4.0029   15.5210   -1.6938 O   0  0  0  0  0  0  0  0  0  0  0  0
   -2.6018   12.1978    0.7957 H   0  0  0  0  0  0  0  0  0  0  0  0
   -6.9715   10.7199    4.9690 H   0  0  0  0  0  0  0  0  0  0  0  0
   -6.4069    8.7377    6.4045 H   0  0  0  0  0  0  0  0  0  0  0  0
   -4.3000    7.5220    6.1059 H   0  0  0  0  0  0  0  0  0  0  0  0
   -1.8594    8.3896    3.4852 H   0  0  0  0  0  0  0  0  0  0  0  0
   -2.0975    7.1082    6.1285 H   0  0  0  0  0  0  0  0  0  0  0  0
   -2.5915    6.0925    4.7686 H   0  0  0  0  0  0  0  0  0  0  0  0
    0.1150    7.4772    5.1798 H   0  0  0  0  0  0  0  0  0  0  0  0
   -0.2061    5.7210    5.1502 H   0  0  0  0  0  0  0  0  0  0  0  0
    1.1604    7.0606    2.0183 H   0  0  0  0  0  0  0  0  0  0  0  0
    1.6812    6.5785    3.6470 H   0  0  0  0  0  0  0  0  0  0  0  0
    0.3042    4.7794    1.5741 H   0  0  0  0  0  0  0  0  0  0  0  0
    2.0469    4.7729    1.9673 H   0  0  0  0  0  0  0  0  0  0  0  0
   -0.0767    2.3214    3.9814 H   0  0  0  0  0  0  0  0  0  0  0  0
   -0.2845    2.7455    2.2715 H   0  0  0  0  0  0  0  0  0  0  0  0
    2.3624    1.9251    3.6002 H   0  0  0  0  0  0  0  0  0  0  0  0
    1.2654    0.8140    2.7382 H   0  0  0  0  0  0  0  0  0  0  0  0
    4.0278    2.0567    0.6482 H   0  0  0  0  0  0  0  0  0  0  0  0
    3.8047    0.9782    2.0361 H   0  0  0  0  0  0  0  0  0  0  0  0
    2.0302   -0.2680    0.6692 H   0  0  0  0  0  0  0  0  0  0  0  0
    2.4224    0.7746   -0.7003 H   0  0  0  0  0  0  0  0  0  0  0  0
    1.6736   -1.0999   -1.4553 H   0  0  0  0  0  0  0  0  0  0  0  0
    2.5793   -1.7451   -2.8382 H   0  0  0  0  0  0  0  0  0  0  0  0
    1.6709   -3.3236   -0.3737 H   0  0  0  0  0  0  0  0  0  0  0  0
    0.9837   -3.4086   -2.0027 H   0  0  0  0  0  0  0  0  0  0  0  0
    4.9085   -2.5313   -2.5210 H   0  0  0  0  0  0  0  0  0  0  0  0
    5.6281   -2.3985   -0.8928 H   0  0  0  0  0  0  0  0  0  0  0  0
    4.9427   -4.7308   -1.4783 H   0  0  0  0  0  0  0  0  0  0  0  0
    4.0730   -4.1252   -0.0410 H   0  0  0  0  0  0  0  0  0  0  0  0
    0.9177   -4.9905   -3.3721 H   0  0  0  0  0  0  0  0  0  0  0  0
    0.1901   -7.2949   -3.8236 H   0  0  0  0  0  0  0  0  0  0  0  0
    3.9421   -6.4932   -0.6924 H   0  0  0  0  0  0  0  0  0  0  0  0
    3.1965   -8.7784   -1.1288 H   0  0  0  0  0  0  0  0  0  0  0  0
   -0.1919   -8.9158   -5.6922 H   0  0  0  0  0  0  0  0  0  0  0  0
    0.9523   -7.7772   -8.1847 H   0  0  0  0  0  0  0  0  0  0  0  0
   -0.7228   -7.6494   -7.6161 H   0  0  0  0  0  0  0  0  0  0  0  0
   -0.1606   -9.1477   -8.4061 H   0  0  0  0  0  0  0  0  0  0  0  0
    2.9587  -11.5234   -5.6556 H   0  0  0  0  0  0  0  0  0  0  0  0
    3.8532  -10.1765   -3.0482 H   0  0  0  0  0  0  0  0  0  0  0  0
    4.6067  -10.1023   -4.6575 H   0  0  0  0  0  0  0  0  0  0  0  0
    4.5807  -11.6348   -3.7553 H   0  0  0  0  0  0  0  0  0  0  0  0
    0.9585  -12.3505   -4.4656 H   0  0  0  0  0  0  0  0  0  0  0  0
    2.4566  -13.1763   -4.0356 H   0  0  0  0  0  0  0  0  0  0  0  0
    1.9712  -14.0567   -1.9713 H   0  0  0  0  0  0  0  0  0  0  0  0
    1.8401  -15.8977    1.0538 H   0  0  0  0  0  0  0  0  0  0  0  0
    2.8424  -15.2521   -0.2803 H   0  0  0  0  0  0  0  0  0  0  0  0
    1.0939  -15.5769   -0.5403 H   0  0  0  0  0  0  0  0  0  0  0  0
   -0.3551   -9.9148    1.6889 H   0  0  0  0  0  0  0  0  0  0  0  0
    1.3773   -9.5475    2.0030 H   0  0  0  0  0  0  0  0  0  0  0  0
    0.4096  -10.4303    3.2232 H   0  0  0  0  0  0  0  0  0  0  0  0
    0.8949   -9.5617   -0.2046 H   0  0  0  0  0  0  0  0  0  0  0  0
   -4.4683   11.2022   -0.4484 H   0  0  0  0  0  0  0  0  0  0  0  0
   -5.5680   12.4829    0.0964 H   0  0  0  0  0  0  0  0  0  0  0  0
   -3.0351   12.8349   -1.6185 H   0  0  0  0  0  0  0  0  0  0  0  0
   -4.6917   13.0774   -2.1696 H   0  0  0  0  0  0  0  0  0  0  0  0
   -3.6866   15.8222    0.7194 H   0  0  0  0  0  0  0  0  0  0  0  0
  1  2  2  0
  2  3  1  0
  3  4  1  0
  4  5  1  0
  5  6  1  0
  6  7  1  0
  7  8  2  0
  8  9  1  0
  9 10  2  0
 10 11  1  0
 11 12  1  0
 12 13  1  0
 13 14  1  0
 14 15  1  0
 15 16  1  0
 16 17  1  0
 17 18  1  0
 18 19  1  0
 19 20  1  0
 20 21  1  0
 21 22  1  0
 22 23  1  0
 23 24  1  0
 24 25  1  0
 25 26  1  0
 24 27  1  0
 27 28  1  0
 28 29  1  0
 26 29  1  0
 29 30  1  0
 30 31  2  0
 31 32  1  0
 30 33  1  0
 33 34  2  0
 34 35  1  0
 32 35  2  0
 35 36  1  0
 36 37  1  0
 37 38  1  0
 38 39  1  0
 39 40  1  0
 40 41  1  0
 39 42  2  0
 38 43  1  0
 43 44  1  0
 43 45  1  0
 45 46  1  0
 46 47  2  0
 47 48  1  0
 48 49  1  0
 49 50  1  0
 48 51  2  0
 51 52  1  0
 52 53  1  0
 51 54  1  0
 54 55  2  0
 46 55  1  0
 36 55  1  0
 23 56  2  0
  6 57  2  0
 10 57  1  0
 57 58  1  0
  4 58  1  0
 58 59  2  0
  5 60  2  0
  3 61  1  0
 61 62  1  0
  2 63  1  0
 62 64  1  0
 63 64  1  0
 64 65  2  0
  3 66  1  6
  7 67  1  0
  8 68  1  0
  9 69  1  0
 11 70  1  0
 12 71  1  0
 12 72  1  0
 13 73  1  0
 13 74  1  0
 15 75  1  0
 15 76  1  0
 16 77  1  0
 16 78  1  0
 18 79  1  0
 18 80  1  0
 19 81  1  0
 19 82  1  0
 21 83  1  0
 21 84  1  0
 22 85  1  0
 22 86  1  0
 25 87  1  0
 25 88  1  0
 26 89  1  0
 26 90  1  0
 27 91  1  0
 27 92  1  0
 28 93  1  0
 28 94  1  0
 31 95  1  0
 32 96  1  0
 33 97  1  0
 34 98  1  0
 40 99  1  0
 41100  1  0
 41101  1  0
 41102  1  0
 43103  1  6
 44104  1  0
 44105  1  0
 44106  1  0
 45107  1  0
 45108  1  0
 47109  1  0
 50110  1  0
 50111  1  0
 50112  1  0
 53113  1  0
 53114  1  0
 53115  1  0
 54116  1  0
 61117  1  0
 61118  1  0
 62119  1  0
 62120  1  0
 63121  1  0
M  END
>  <ANI_energy(hartree)>  (1) 
-3051.593929693593

>  <ANI_energy(kcal/mol)>  (1) 
-1914902.655228097

$$$$
